# AFLOW.org Repositories
# Ag1Br1   [MCL,MCL,mP4] (STD_PRIM doi:10.
data_Ag1Br1
_pd_phase_name Ag1Br1
_cell_length_a  4.1177812873
_cell_length_b  4.1309770972
_cell_length_c  5.8362079995
_cell_angle_alpha  89.4898611091
_cell_angle_beta  90.0000000000
_cell_angle_gamma  90.0000000000
_symmetry_space_group_name_H-M  'P1'
_symmetry_Int_Tables_Number  1
loop_
_symmetry_equiv_pos_site_id
_symmetry_equiv_pos_as_xyz
  1  x,y,z
loop_
 _atom_site_label
 _atom_site_occupancy
 _atom_site_fract_x
 _atom_site_fract_y
 _atom_site_fract_z
 _atom_site_thermal_displace_type
 _atom_site_B_iso_or_equiv
 _atom_site_type_symbol
Ag1 1.0000000000 0.7500000000 0.2274062498 0.2497630489  Biso 1.0 Ag
Ag2 1.0000000000 0.2500000000 0.7725937502 0.7502369511  Biso 1.0 Ag
Br3 1.0000000000 0.7500000000 0.2656990974 0.7498244857  Biso 1.0 Br
Br4 1.0000000000 0.2500000000 0.7343009026 0.2501755143  Biso 1.0 Br
