# AFLOW.org Repositories
# Ag1Ca1   [ORCC,ORCC,oS8] (STD_PRIM doi:1
data_Ag1Ca1
_pd_phase_name Ag1Ca1
_cell_length_a  6.1146369481
_cell_length_b  6.1146369481
_cell_length_c  4.7150966100
_cell_angle_alpha  90.0000000000
_cell_angle_beta  90.0000000000
_cell_angle_gamma  140.9523379486
_symmetry_space_group_name_H-M  'P1'
_symmetry_Int_Tables_Number  1
loop_
_symmetry_equiv_pos_site_id
_symmetry_equiv_pos_as_xyz
  1  x,y,z
loop_
 _atom_site_label
 _atom_site_occupancy
 _atom_site_fract_x
 _atom_site_fract_y
 _atom_site_fract_z
 _atom_site_thermal_displace_type
 _atom_site_B_iso_or_equiv
 _atom_site_type_symbol
Ag1 1.0000000000 0.5753136919 0.4246863081 0.2500000000  Biso 1.0 Ag
Ag2 1.0000000000 0.4246863081 0.5753136919 0.7500000000  Biso 1.0 Ag
Ca3 1.0000000000 0.8577291803 0.1422708197 0.2500000000  Biso 1.0 Ca
Ca4 1.0000000000 0.1422708197 0.8577291803 0.7500000000  Biso 1.0 Ca
