# AFLOW.org Repositories
# Ag1F3Rb1   [BCT,BCT2,tI20] (STD_PRIM doi
data_Ag1F3Rb1
_pd_phase_name Ag1F3Rb1
_cell_length_a  6.2940605481
_cell_length_b  6.2940605481
_cell_length_c  6.2940605481
_cell_angle_alpha  118.9757557802
_cell_angle_beta  118.9757557802
_cell_angle_gamma  91.7833911688
_symmetry_space_group_name_H-M  'P1'
_symmetry_Int_Tables_Number  1
loop_
_symmetry_equiv_pos_site_id
_symmetry_equiv_pos_as_xyz
  1  x,y,z
loop_
 _atom_site_label
 _atom_site_occupancy
 _atom_site_fract_x
 _atom_site_fract_y
 _atom_site_fract_z
 _atom_site_thermal_displace_type
 _atom_site_B_iso_or_equiv
 _atom_site_type_symbol
Ag1 1.0000000000 0.0000000000 0.5000000000 0.5000000000  Biso 1.0 Ag
Ag2 1.0000000000 0.5000000000 0.0000000000 0.5000000000  Biso 1.0 Ag
F3 1.0000000000 0.7500000000 0.2500000000 0.5000000000  Biso 1.0 F
F4 1.0000000000 0.2500000000 0.7500000000 0.5000000000  Biso 1.0 F
F5 1.0000000000 0.7696061090 0.2696061090 0.0392122179  Biso 1.0 F
F6 1.0000000000 0.2303938910 0.7303938910 0.9607877821  Biso 1.0 F
F7 1.0000000000 0.7303938910 0.7696061090 0.5000000000  Biso 1.0 F
F8 1.0000000000 0.2696061090 0.2303938910 0.5000000000  Biso 1.0 F
Rb9 1.0000000000 0.7500000000 0.7500000000 0.0000000000  Biso 1.0 Rb
Rb10 1.0000000000 0.2500000000 0.2500000000 0.0000000000  Biso 1.0 Rb
