# AFLOW.org Repositories
# Ag1Ho1Pb1   [HEX,HEX,hP6] (STD_PRIM doi:
data_Ag1Ho1Pb1
_pd_phase_name Ag1Ho1Pb1
_cell_length_a  4.8232038087
_cell_length_b  4.8232038087
_cell_length_c  7.4515083260
_cell_angle_alpha  90.0000000000
_cell_angle_beta  90.0000000000
_cell_angle_gamma  120.0000000000
_symmetry_space_group_name_H-M  'P1'
_symmetry_Int_Tables_Number  1
loop_
_symmetry_equiv_pos_site_id
_symmetry_equiv_pos_as_xyz
  1  x,y,z
loop_
 _atom_site_label
 _atom_site_occupancy
 _atom_site_fract_x
 _atom_site_fract_y
 _atom_site_fract_z
 _atom_site_thermal_displace_type
 _atom_site_B_iso_or_equiv
 _atom_site_type_symbol
Ag1 1.0000000000 0.6666731845 0.3333463689 0.8294441469  Biso 1.0 Ag
Ag2 1.0000000000 0.3333268155 0.6666536311 0.3294441469  Biso 1.0 Ag
Ho3 1.0000000000 0.0000000000 0.0000000000 0.0144828858  Biso 1.0 Ho
Ho4 1.0000000000 0.0000000000 0.0000000000 0.5144828858  Biso 1.0 Ho
Pb5 1.0000000000 0.6666579528 0.3333159055 0.2359729672  Biso 1.0 Pb
Pb6 1.0000000000 0.3333420472 0.6666840945 0.7359729672  Biso 1.0 Pb
