# AFLOW.org Repositories
# Ag1Mg1Y1   [HEX,HEX,hP9] (STD_PRIM doi:1
data_Ag1Mg1Y1
_pd_phase_name Ag1Mg1Y1
_cell_length_a  7.7335927637
_cell_length_b  7.7335927637
_cell_length_c  4.1512406286
_cell_angle_alpha  90.0000000000
_cell_angle_beta  90.0000000000
_cell_angle_gamma  120.0000000000
_symmetry_space_group_name_H-M  'P1'
_symmetry_Int_Tables_Number  1
loop_
_symmetry_equiv_pos_site_id
_symmetry_equiv_pos_as_xyz
  1  x,y,z
loop_
 _atom_site_label
 _atom_site_occupancy
 _atom_site_fract_x
 _atom_site_fract_y
 _atom_site_fract_z
 _atom_site_thermal_displace_type
 _atom_site_B_iso_or_equiv
 _atom_site_type_symbol
Ag1 1.0000000000 0.0000000000 0.0000000000 0.5000000000  Biso 1.0 Ag
Ag2 1.0000000000 0.6666691473 0.3333435429 0.0000000000  Biso 1.0 Ag
Ag3 1.0000000000 0.3333256044 0.6666564571 0.0000000000  Biso 1.0 Ag
Mg4 1.0000000000 0.0000000000 0.7527694036 0.0000000000  Biso 1.0 Mg
Mg5 1.0000000000 0.2472305964 0.2472305964 0.0000000000  Biso 1.0 Mg
Mg6 1.0000000000 0.7527715022 0.0000000000 0.0000000000  Biso 1.0 Mg
Y7 1.0000000000 0.0000000000 0.4109512445 0.5000000000  Biso 1.0 Y
Y8 1.0000000000 0.5890487555 0.5890487555 0.5000000000  Biso 1.0 Y
Y9 1.0000000000 0.4109581321 0.0000000000 0.5000000000  Biso 1.0 Y
