# AFLOW.org Repositories
# Ag1Se1Tl1   [ORC,ORC,oP12] (STD_PRIM doi
data_Ag1Se1Tl1
_pd_phase_name Ag1Se1Tl1
_cell_length_a  4.7028410191
_cell_length_b  7.8279933889
_cell_length_c  8.2984524482
_cell_angle_alpha  90.0000000000
_cell_angle_beta  90.0000000000
_cell_angle_gamma  90.0000000000
_symmetry_space_group_name_H-M  'P1'
_symmetry_Int_Tables_Number  1
loop_
_symmetry_equiv_pos_site_id
_symmetry_equiv_pos_as_xyz
  1  x,y,z
loop_
 _atom_site_label
 _atom_site_occupancy
 _atom_site_fract_x
 _atom_site_fract_y
 _atom_site_fract_z
 _atom_site_thermal_displace_type
 _atom_site_B_iso_or_equiv
 _atom_site_type_symbol
Ag1 1.0000000000 0.7500000458 0.9173687423 0.6655940140  Biso 1.0 Ag
Ag2 1.0000000000 0.2500000519 0.4173915904 0.8343717119  Biso 1.0 Ag
Ag3 1.0000000000 0.2499999542 0.0826312577 0.3344059860  Biso 1.0 Ag
Ag4 1.0000000000 0.7499999481 0.5826084096 0.1656282881  Biso 1.0 Ag
Se5 1.0000000000 0.7500000616 0.8971357123 0.3072323908  Biso 1.0 Se
Se6 1.0000000000 0.2500000131 0.3971265782 0.1927545467  Biso 1.0 Se
Se7 1.0000000000 0.2499999384 0.1028642877 0.6927676092  Biso 1.0 Se
Se8 1.0000000000 0.7499999869 0.6028734218 0.8072454533  Biso 1.0 Se
Tl9 1.0000000000 0.7499999778 0.3182669236 0.5053883132  Biso 1.0 Tl
Tl10 1.0000000000 0.2499999979 0.8182602299 0.9946523052  Biso 1.0 Tl
Tl11 1.0000000000 0.2500000222 0.6817330764 0.4946116868  Biso 1.0 Tl
Tl12 1.0000000000 0.7500000021 0.1817397701 0.0053476948  Biso 1.0 Tl
