# AFLOW.org Repositories
# Ag3O4P1   [CUB,CUB,cP16] (STD_PRIM doi:1
data_Ag3O4P1
_pd_phase_name Ag3O4P1
_cell_length_a  6.1142383085
_cell_length_b  6.1142383085
_cell_length_c  6.1142383085
_cell_angle_alpha  90.0000000000
_cell_angle_beta  90.0000000000
_cell_angle_gamma  90.0000000000
_symmetry_space_group_name_H-M  'P1'
_symmetry_Int_Tables_Number  1
loop_
_symmetry_equiv_pos_site_id
_symmetry_equiv_pos_as_xyz
  1  x,y,z
loop_
 _atom_site_label
 _atom_site_occupancy
 _atom_site_fract_x
 _atom_site_fract_y
 _atom_site_fract_z
 _atom_site_thermal_displace_type
 _atom_site_B_iso_or_equiv
 _atom_site_type_symbol
Ag1 1.0000000000 0.7500000000 0.0000000000 0.5000000000  Biso 1.0 Ag
Ag2 1.0000000000 0.2500000000 0.0000000000 0.5000000000  Biso 1.0 Ag
Ag3 1.0000000000 0.5000000000 0.7500000000 0.0000000000  Biso 1.0 Ag
Ag4 1.0000000000 0.5000000000 0.2500000000 0.0000000000  Biso 1.0 Ag
Ag5 1.0000000000 0.0000000000 0.5000000000 0.2500000000  Biso 1.0 Ag
Ag6 1.0000000000 0.0000000000 0.5000000000 0.7500000000  Biso 1.0 Ag
O7 1.0000000000 0.8520610585 0.8520610585 0.1479389415  Biso 1.0 O
O8 1.0000000000 0.1479389415 0.1479389415 0.1479389415  Biso 1.0 O
O9 1.0000000000 0.1479389415 0.8520610585 0.8520610585  Biso 1.0 O
O10 1.0000000000 0.8520610585 0.1479389415 0.8520610585  Biso 1.0 O
O11 1.0000000000 0.3520610585 0.3520610585 0.6479389415  Biso 1.0 O
O12 1.0000000000 0.6479389415 0.6479389415 0.6479389415  Biso 1.0 O
O13 1.0000000000 0.3520610585 0.6479389415 0.3520610585  Biso 1.0 O
O14 1.0000000000 0.6479389415 0.3520610585 0.3520610585  Biso 1.0 O
P15 1.0000000000 0.0000000000 0.0000000000 0.0000000000  Biso 1.0 P
P16 1.0000000000 0.5000000000 0.5000000000 0.5000000000  Biso 1.0 P
