# AFLOW.org Repositories
# Ag3P1S4   [ORC,ORC,oP16] (STD_PRIM doi:1
data_Ag3P1S4
_pd_phase_name Ag3P1S4
_cell_length_a  6.6259250024
_cell_length_b  6.9980600562
_cell_length_c  7.8061350643
_cell_angle_alpha  90.0000000000
_cell_angle_beta  90.0000000000
_cell_angle_gamma  90.0000000000
_symmetry_space_group_name_H-M  'P1'
_symmetry_Int_Tables_Number  1
loop_
_symmetry_equiv_pos_site_id
_symmetry_equiv_pos_as_xyz
  1  x,y,z
loop_
 _atom_site_label
 _atom_site_occupancy
 _atom_site_fract_x
 _atom_site_fract_y
 _atom_site_fract_z
 _atom_site_thermal_displace_type
 _atom_site_B_iso_or_equiv
 _atom_site_type_symbol
Ag1 1.0000000000 0.1184630187 0.3555645793 0.0000000000  Biso 1.0 Ag
Ag2 1.0000000000 0.6184630187 0.6444354207 0.5000000000  Biso 1.0 Ag
Ag3 1.0000000000 0.0727991764 0.7993761798 0.7306930415  Biso 1.0 Ag
Ag4 1.0000000000 0.5727991764 0.2006238202 0.7693069585  Biso 1.0 Ag
Ag5 1.0000000000 0.5727991764 0.2006238202 0.2306930415  Biso 1.0 Ag
Ag6 1.0000000000 0.0727991764 0.7993761798 0.2693069585  Biso 1.0 Ag
P7 1.0000000000 0.5947985958 0.6942546140 0.0000000000  Biso 1.0 P
P8 1.0000000000 0.0947985958 0.3057453860 0.5000000000  Biso 1.0 P
S9 1.0000000000 0.2845664964 0.6916615364 0.0000000000  Biso 1.0 S
S10 1.0000000000 0.7845664964 0.3083384636 0.5000000000  Biso 1.0 S
S11 1.0000000000 0.7199512299 0.4237975458 0.0000000000  Biso 1.0 S
S12 1.0000000000 0.2199512299 0.5762024542 0.5000000000  Biso 1.0 S
S13 1.0000000000 0.1918611532 0.1599963975 0.7168449038  Biso 1.0 S
S14 1.0000000000 0.6918611532 0.8400036025 0.7831550962  Biso 1.0 S
S15 1.0000000000 0.6918611532 0.8400036025 0.2168449038  Biso 1.0 S
S16 1.0000000000 0.1918611532 0.1599963975 0.2831550962  Biso 1.0 S
