# AFLOW.org Repositories
# Ag5S4Sb1   [ORCC,ORCC,oS40] (STD_PRIM do
data_Ag5S4Sb1
_pd_phase_name Ag5S4Sb1
_cell_length_a  7.4893357086
_cell_length_b  7.4893357086
_cell_length_c  8.7713531339
_cell_angle_alpha  90.0000000000
_cell_angle_beta  90.0000000000
_cell_angle_gamma  115.9618431434
_symmetry_space_group_name_H-M  'P1'
_symmetry_Int_Tables_Number  1
loop_
_symmetry_equiv_pos_site_id
_symmetry_equiv_pos_as_xyz
  1  x,y,z
loop_
 _atom_site_label
 _atom_site_occupancy
 _atom_site_fract_x
 _atom_site_fract_y
 _atom_site_fract_z
 _atom_site_thermal_displace_type
 _atom_site_B_iso_or_equiv
 _atom_site_type_symbol
Ag1 1.0000000000 0.8581664936 0.1418335064 0.8260030915  Biso 1.0 Ag
Ag2 1.0000000000 0.1418335064 0.8581664936 0.3260030915  Biso 1.0 Ag
Ag3 1.0000000000 0.2502732246 0.1281784666 0.6777502132  Biso 1.0 Ag
Ag4 1.0000000000 0.7497267754 0.8718215334 0.1777502132  Biso 1.0 Ag
Ag5 1.0000000000 0.1281784666 0.2502732246 0.1777502132  Biso 1.0 Ag
Ag6 1.0000000000 0.8718215334 0.7497267754 0.6777502132  Biso 1.0 Ag
Ag7 1.0000000000 0.4327290625 0.1865399097 0.9871174562  Biso 1.0 Ag
Ag8 1.0000000000 0.5672709375 0.8134600903 0.4871174562  Biso 1.0 Ag
Ag9 1.0000000000 0.1865399097 0.4327290625 0.4871174562  Biso 1.0 Ag
Ag10 1.0000000000 0.8134600903 0.5672709375 0.9871174562  Biso 1.0 Ag
S11 1.0000000000 0.0270323535 0.9729676465 0.9771091275  Biso 1.0 S
S12 1.0000000000 0.9729676465 0.0270323535 0.4771091275  Biso 1.0 S
S13 1.0000000000 0.5148999756 0.4851000244 0.7951602305  Biso 1.0 S
S14 1.0000000000 0.4851000244 0.5148999756 0.2951602305  Biso 1.0 S
S15 1.0000000000 0.4955890447 0.9645455160 0.7308159772  Biso 1.0 S
S16 1.0000000000 0.5044109553 0.0354544840 0.2308159772  Biso 1.0 S
S17 1.0000000000 0.9645455160 0.4955890447 0.2308159772  Biso 1.0 S
S18 1.0000000000 0.0354544840 0.5044109553 0.7308159772  Biso 1.0 S
Sb19 1.0000000000 0.3306179007 0.6693820993 0.8946602574  Biso 1.0 Sb
Sb20 1.0000000000 0.6693820993 0.3306179007 0.3946602574  Biso 1.0 Sb
