# AFLOW.org Repositories
# Ag8Ca3   [BCC,BCC,cI44] (STD_PRIM doi:10
data_Ag8Ca3
_pd_phase_name Ag8Ca3
_cell_length_a  8.6982031320
_cell_length_b  8.6982031320
_cell_length_c  8.6982031320
_cell_angle_alpha  109.4712206345
_cell_angle_beta  109.4712206345
_cell_angle_gamma  109.4712206345
_symmetry_space_group_name_H-M  'P1'
_symmetry_Int_Tables_Number  1
loop_
_symmetry_equiv_pos_site_id
_symmetry_equiv_pos_as_xyz
  1  x,y,z
loop_
 _atom_site_label
 _atom_site_occupancy
 _atom_site_fract_x
 _atom_site_fract_y
 _atom_site_fract_z
 _atom_site_thermal_displace_type
 _atom_site_B_iso_or_equiv
 _atom_site_type_symbol
Ag1 1.0000000000 0.0000000000 0.5000000000 0.0000000000  Biso 1.0 Ag
Ag2 1.0000000000 0.5000000000 0.5000000000 0.5000000000  Biso 1.0 Ag
Ag3 1.0000000000 0.5000000000 0.0000000000 0.0000000000  Biso 1.0 Ag
Ag4 1.0000000000 0.0000000000 0.0000000000 0.5000000000  Biso 1.0 Ag
Ag5 1.0000000000 0.0000000000 0.6580720071 0.3419279929  Biso 1.0 Ag
Ag6 1.0000000000 0.6838559858 0.3419279929 0.3419279929  Biso 1.0 Ag
Ag7 1.0000000000 0.3161440142 0.6580720071 0.6580720071  Biso 1.0 Ag
Ag8 1.0000000000 0.0000000000 0.3419279929 0.6580720071  Biso 1.0 Ag
Ag9 1.0000000000 0.3419279929 0.6580720071 0.0000000000  Biso 1.0 Ag
Ag10 1.0000000000 0.6580720071 0.6580720071 0.3161440142  Biso 1.0 Ag
Ag11 1.0000000000 0.3419279929 0.3419279929 0.6838559858  Biso 1.0 Ag
Ag12 1.0000000000 0.6580720071 0.3419279929 0.0000000000  Biso 1.0 Ag
Ag13 1.0000000000 0.6580720071 0.3161440142 0.6580720071  Biso 1.0 Ag
Ag14 1.0000000000 0.6580720071 0.0000000000 0.3419279929  Biso 1.0 Ag
Ag15 1.0000000000 0.3419279929 0.0000000000 0.6580720071  Biso 1.0 Ag
Ag16 1.0000000000 0.3419279929 0.6838559858 0.3419279929  Biso 1.0 Ag
Ca17 1.0000000000 0.0000000000 0.2770613105 0.2770613105  Biso 1.0 Ca
Ca18 1.0000000000 0.0000000000 0.7229386895 0.7229386895  Biso 1.0 Ca
Ca19 1.0000000000 0.2770613105 0.2770613105 0.0000000000  Biso 1.0 Ca
Ca20 1.0000000000 0.7229386895 0.7229386895 0.0000000000  Biso 1.0 Ca
Ca21 1.0000000000 0.7229386895 0.0000000000 0.7229386895  Biso 1.0 Ca
Ca22 1.0000000000 0.2770613105 0.0000000000 0.2770613105  Biso 1.0 Ca
