# AFLOW.org Repositories
# Al16Pt7Ti6   [FCC,FCC,cF116] (STD_PRIM d
data_Al16Pt7Ti6
_pd_phase_name Al16Pt7Ti6
_cell_length_a  8.6539523459
_cell_length_b  8.6539523459
_cell_length_c  8.6539523459
_cell_angle_alpha  60.0000000000
_cell_angle_beta  60.0000000000
_cell_angle_gamma  60.0000000000
_symmetry_space_group_name_H-M  'P1'
_symmetry_Int_Tables_Number  1
loop_
_symmetry_equiv_pos_site_id
_symmetry_equiv_pos_as_xyz
  1  x,y,z
loop_
 _atom_site_label
 _atom_site_occupancy
 _atom_site_fract_x
 _atom_site_fract_y
 _atom_site_fract_z
 _atom_site_thermal_displace_type
 _atom_site_B_iso_or_equiv
 _atom_site_type_symbol
Al1 1.0000000000 0.1199767193 0.1199767193 0.1199767193  Biso 1.0 Al
Al2 1.0000000000 0.1199767193 0.6400698421 0.1199767193  Biso 1.0 Al
Al3 1.0000000000 0.6400698421 0.1199767193 0.1199767193  Biso 1.0 Al
Al4 1.0000000000 0.1199767193 0.1199767193 0.6400698421  Biso 1.0 Al
Al5 1.0000000000 0.8800232807 0.3599301579 0.8800232807  Biso 1.0 Al
Al6 1.0000000000 0.8800232807 0.8800232807 0.8800232807  Biso 1.0 Al
Al7 1.0000000000 0.3599301579 0.8800232807 0.8800232807  Biso 1.0 Al
Al8 1.0000000000 0.8800232807 0.8800232807 0.3599301579  Biso 1.0 Al
Al9 1.0000000000 0.3376230800 0.3376230800 0.3376230800  Biso 1.0 Al
Al10 1.0000000000 0.3376230800 0.9871307601 0.3376230800  Biso 1.0 Al
Al11 1.0000000000 0.9871307601 0.3376230800 0.3376230800  Biso 1.0 Al
Al12 1.0000000000 0.3376230800 0.3376230800 0.9871307601  Biso 1.0 Al
Al13 1.0000000000 0.6623769200 0.0128692399 0.6623769200  Biso 1.0 Al
Al14 1.0000000000 0.6623769200 0.6623769200 0.6623769200  Biso 1.0 Al
Al15 1.0000000000 0.0128692399 0.6623769200 0.6623769200  Biso 1.0 Al
Al16 1.0000000000 0.6623769200 0.6623769200 0.0128692399  Biso 1.0 Al
Pt17 1.0000000000 0.0000000000 0.0000000000 0.0000000000  Biso 1.0 Pt
Pt18 1.0000000000 0.0000000000 0.0000000000 0.5000000000  Biso 1.0 Pt
Pt19 1.0000000000 0.5000000000 0.5000000000 0.0000000000  Biso 1.0 Pt
Pt20 1.0000000000 0.5000000000 0.0000000000 0.0000000000  Biso 1.0 Pt
Pt21 1.0000000000 0.0000000000 0.5000000000 0.5000000000  Biso 1.0 Pt
Pt22 1.0000000000 0.0000000000 0.5000000000 0.0000000000  Biso 1.0 Pt
Pt23 1.0000000000 0.5000000000 0.0000000000 0.5000000000  Biso 1.0 Pt
Ti24 1.0000000000 0.3254920029 0.3254920029 0.6745079971  Biso 1.0 Ti
Ti25 1.0000000000 0.6745079971 0.6745079971 0.3254920029  Biso 1.0 Ti
Ti26 1.0000000000 0.6745079971 0.3254920029 0.3254920029  Biso 1.0 Ti
Ti27 1.0000000000 0.3254920029 0.6745079971 0.6745079971  Biso 1.0 Ti
Ti28 1.0000000000 0.3254920029 0.6745079971 0.3254920029  Biso 1.0 Ti
Ti29 1.0000000000 0.6745079971 0.3254920029 0.6745079971  Biso 1.0 Ti
