# AFLOW.org Repositories
# Al18Mg3W2   [FCC,FCC,cF184] (STD_PRIM do
data_Al18Mg3W2
_pd_phase_name Al18Mg3W2
_cell_length_a  10.3997244180
_cell_length_b  10.3997244180
_cell_length_c  10.3997244180
_cell_angle_alpha  60.0000000000
_cell_angle_beta  60.0000000000
_cell_angle_gamma  60.0000000000
_symmetry_space_group_name_H-M  'P1'
_symmetry_Int_Tables_Number  1
loop_
_symmetry_equiv_pos_site_id
_symmetry_equiv_pos_as_xyz
  1  x,y,z
loop_
 _atom_site_label
 _atom_site_occupancy
 _atom_site_fract_x
 _atom_site_fract_y
 _atom_site_fract_z
 _atom_site_thermal_displace_type
 _atom_site_B_iso_or_equiv
 _atom_site_type_symbol
Al1 1.0000000000 0.4821396099 0.4821396098 0.2678603901  Biso 1.0 Al
Al2 1.0000000000 0.7678603901 0.7678603902 0.9821396098  Biso 1.0 Al
Al3 1.0000000000 0.4821396099 0.7678603902 0.2678603901  Biso 1.0 Al
Al4 1.0000000000 0.7678603902 0.4821396098 0.9821396098  Biso 1.0 Al
Al5 1.0000000000 0.7678603901 0.4821396098 0.2678603902  Biso 1.0 Al
Al6 1.0000000000 0.4821396099 0.7678603902 0.9821396098  Biso 1.0 Al
Al7 1.0000000000 0.2321396099 0.5178603902 0.0178603901  Biso 1.0 Al
Al8 1.0000000000 0.5178603902 0.2321396098 0.7321396098  Biso 1.0 Al
Al9 1.0000000000 0.2321396099 0.2321396098 0.0178603902  Biso 1.0 Al
Al10 1.0000000000 0.5178603902 0.5178603902 0.7321396098  Biso 1.0 Al
Al11 1.0000000000 0.2321396099 0.5178603902 0.7321396098  Biso 1.0 Al
Al12 1.0000000000 0.5178603902 0.2321396098 0.0178603901  Biso 1.0 Al
Al13 1.0000000000 0.7957413230 0.3225610180 0.5591366409  Biso 1.0 Al
Al14 1.0000000000 0.0591366409 0.3225610180 0.2957413230  Biso 1.0 Al
Al15 1.0000000000 0.3225610181 0.0591366409 0.8225610180  Biso 1.0 Al
Al16 1.0000000000 0.3225610181 0.7957413230 0.8225610180  Biso 1.0 Al
Al17 1.0000000000 0.3225610181 0.3225610180 0.5591366409  Biso 1.0 Al
Al18 1.0000000000 0.3225610181 0.3225610180 0.2957413230  Biso 1.0 Al
Al19 1.0000000000 0.0591366409 0.7957413230 0.8225610180  Biso 1.0 Al
Al20 1.0000000000 0.7957413231 0.0591366409 0.8225610180  Biso 1.0 Al
Al21 1.0000000000 0.3225610181 0.7957413230 0.5591366409  Biso 1.0 Al
Al22 1.0000000000 0.3225610181 0.0591366409 0.2957413230  Biso 1.0 Al
Al23 1.0000000000 0.7957413231 0.3225610180 0.8225610180  Biso 1.0 Al
Al24 1.0000000000 0.0591366409 0.3225610180 0.8225610180  Biso 1.0 Al
Al25 1.0000000000 0.9408633591 0.6774389820 0.7042586770  Biso 1.0 Al
Al26 1.0000000000 0.2042586770 0.6774389820 0.4408633591  Biso 1.0 Al
Al27 1.0000000000 0.6774389820 0.9408633591 0.1774389819  Biso 1.0 Al
Al28 1.0000000000 0.6774389820 0.2042586770 0.1774389819  Biso 1.0 Al
Al29 1.0000000000 0.9408633591 0.6774389820 0.1774389819  Biso 1.0 Al
Al30 1.0000000000 0.2042586770 0.6774389820 0.1774389820  Biso 1.0 Al
Al31 1.0000000000 0.6774389820 0.2042586770 0.4408633591  Biso 1.0 Al
Al32 1.0000000000 0.6774389819 0.9408633591 0.7042586770  Biso 1.0 Al
Al33 1.0000000000 0.9408633591 0.2042586770 0.1774389820  Biso 1.0 Al
Al34 1.0000000000 0.2042586770 0.9408633591 0.1774389820  Biso 1.0 Al
Al35 1.0000000000 0.6774389820 0.6774389820 0.7042586770  Biso 1.0 Al
Al36 1.0000000000 0.6774389820 0.6774389820 0.4408633591  Biso 1.0 Al
Mg37 1.0000000000 0.0000000000 0.0000000000 0.0000000000  Biso 1.0 Mg
Mg38 1.0000000000 0.5000000000 0.0000000000 0.5000000000  Biso 1.0 Mg
Mg39 1.0000000000 0.0000000000 0.5000000000 0.5000000000  Biso 1.0 Mg
Mg40 1.0000000000 0.0000000000 0.0000000000 0.5000000000  Biso 1.0 Mg
Mg41 1.0000000000 0.1250000000 0.1250000000 0.6250000000  Biso 1.0 Mg
Mg42 1.0000000000 0.8750000000 0.8750000000 0.3750000000  Biso 1.0 Mg
W43 1.0000000000 0.5000000000 0.5000000000 0.5000000000  Biso 1.0 W
W44 1.0000000000 0.0000000000 0.5000000000 0.0000000000  Biso 1.0 W
W45 1.0000000000 0.5000000000 0.0000000000 0.0000000000  Biso 1.0 W
W46 1.0000000000 0.5000000000 0.5000000000 0.0000000000  Biso 1.0 W
