# AFLOW.org Repositories
# Al1Cu1Er1   [HEX,HEX,hP9] (STD_PRIM doi:
data_Al1Cu1Er1
_pd_phase_name Al1Cu1Er1
_cell_length_a  6.9921383533
_cell_length_b  6.9921383533
_cell_length_c  4.0083673209
_cell_angle_alpha  90.0000000000
_cell_angle_beta  90.0000000000
_cell_angle_gamma  120.0000000000
_symmetry_space_group_name_H-M  'P1'
_symmetry_Int_Tables_Number  1
loop_
_symmetry_equiv_pos_site_id
_symmetry_equiv_pos_as_xyz
  1  x,y,z
loop_
 _atom_site_label
 _atom_site_occupancy
 _atom_site_fract_x
 _atom_site_fract_y
 _atom_site_fract_z
 _atom_site_thermal_displace_type
 _atom_site_B_iso_or_equiv
 _atom_site_type_symbol
Al1 1.0000000000 0.7641330593 0.7641330593 0.0000000000  Biso 1.0 Al
Al2 1.0000000000 0.2358743944 0.0000000000 0.0000000000  Biso 1.0 Al
Al3 1.0000000000 0.0000000000 0.2358793452 0.0000000000  Biso 1.0 Al
Cu4 1.0000000000 0.0000000000 0.0000000000 0.5000000000  Biso 1.0 Cu
Cu5 1.0000000000 0.3334021184 0.6667069817 0.0000000000  Biso 1.0 Cu
Cu6 1.0000000000 0.6665978816 0.3333048633 0.0000000000  Biso 1.0 Cu
Er7 1.0000000000 0.4113845848 0.4113845848 0.5000000000  Biso 1.0 Er
Er8 1.0000000000 0.5886079506 0.0000000000 0.5000000000  Biso 1.0 Er
Er9 1.0000000000 0.0000000000 0.5886057654 0.5000000000  Biso 1.0 Er
