# AFLOW.org Repositories
# Al1C3V4   [HEX,HEX,hP16] (STD_PRIM doi:1
data_Al1C3V4
_pd_phase_name Al1C3V4
_cell_length_a  2.9421168665
_cell_length_b  2.9421168665
_cell_length_c  22.9459074697
_cell_angle_alpha  90.0000000000
_cell_angle_beta  90.0000000000
_cell_angle_gamma  120.0000000000
_symmetry_space_group_name_H-M  'P1'
_symmetry_Int_Tables_Number  1
loop_
_symmetry_equiv_pos_site_id
_symmetry_equiv_pos_as_xyz
  1  x,y,z
loop_
 _atom_site_label
 _atom_site_occupancy
 _atom_site_fract_x
 _atom_site_fract_y
 _atom_site_fract_z
 _atom_site_thermal_displace_type
 _atom_site_B_iso_or_equiv
 _atom_site_type_symbol
Al1 1.0000000000 0.3333202600 0.6666797400 0.2500000000  Biso 1.0 Al
Al2 1.0000000000 0.6666797400 0.3333202600 0.7500000000  Biso 1.0 Al
C3 1.0000000000 0.0000000000 0.0000000000 0.0000000000  Biso 1.0 C
C4 1.0000000000 0.0000000000 0.0000000000 0.5000000000  Biso 1.0 C
C5 1.0000000000 0.6666653707 0.3333346293 0.1080336532  Biso 1.0 C
C6 1.0000000000 0.3333346293 0.6666653707 0.6080336532  Biso 1.0 C
C7 1.0000000000 0.3333346293 0.6666653707 0.8919663468  Biso 1.0 C
C8 1.0000000000 0.6666653707 0.3333346293 0.3919663468  Biso 1.0 C
V9 1.0000000000 0.3333336060 0.6666663940 0.0540957262  Biso 1.0 V
V10 1.0000000000 0.6666663940 0.3333336060 0.5540957262  Biso 1.0 V
V11 1.0000000000 0.6666663940 0.3333336060 0.9459042738  Biso 1.0 V
V12 1.0000000000 0.3333336060 0.6666663940 0.4459042738  Biso 1.0 V
V13 1.0000000000 0.0000000000 0.0000000000 0.1549123199  Biso 1.0 V
V14 1.0000000000 0.0000000000 0.0000000000 0.6549123199  Biso 1.0 V
V15 1.0000000000 0.0000000000 0.0000000000 0.8450876801  Biso 1.0 V
V16 1.0000000000 0.0000000000 0.0000000000 0.3450876801  Biso 1.0 V
