# AFLOW.org Repositories
# Al1C1Zr2   [HEX,HEX,hP8] (STD_PRIM doi:1
data_Al1C1Zr2
_pd_phase_name Al1C1Zr2
_cell_length_a  3.3308456289
_cell_length_b  3.3308456289
_cell_length_c  14.6093044152
_cell_angle_alpha  90.0000000000
_cell_angle_beta  90.0000000000
_cell_angle_gamma  120.0000000000
_symmetry_space_group_name_H-M  'P1'
_symmetry_Int_Tables_Number  1
loop_
_symmetry_equiv_pos_site_id
_symmetry_equiv_pos_as_xyz
  1  x,y,z
loop_
 _atom_site_label
 _atom_site_occupancy
 _atom_site_fract_x
 _atom_site_fract_y
 _atom_site_fract_z
 _atom_site_thermal_displace_type
 _atom_site_B_iso_or_equiv
 _atom_site_type_symbol
Al1 1.0000000000 0.3333099586 0.6666900414 0.7500000000  Biso 1.0 Al
Al2 1.0000000000 0.6666900414 0.3333099586 0.2500000000  Biso 1.0 Al
C3 1.0000000000 0.0000000000 0.0000000000 0.0000000000  Biso 1.0 C
C4 1.0000000000 0.0000000000 0.0000000000 0.5000000000  Biso 1.0 C
Zr5 1.0000000000 0.3333250541 0.6666749459 0.0868517647  Biso 1.0 Zr
Zr6 1.0000000000 0.6666749459 0.3333250541 0.5868517647  Biso 1.0 Zr
Zr7 1.0000000000 0.6666749459 0.3333250541 0.9131482353  Biso 1.0 Zr
Zr8 1.0000000000 0.3333250541 0.6666749459 0.4131482353  Biso 1.0 Zr
