# AFLOW.org Repositories
# Al1Er1   [ORC,ORC,oP16] (STD_PRIM doi:10
data_Al1Er1
_pd_phase_name Al1Er1
_cell_length_a  5.5765090688
_cell_length_b  5.8104372569
_cell_length_c  11.3289792414
_cell_angle_alpha  90.0000000000
_cell_angle_beta  90.0000000000
_cell_angle_gamma  90.0000000000
_symmetry_space_group_name_H-M  'P1'
_symmetry_Int_Tables_Number  1
loop_
_symmetry_equiv_pos_site_id
_symmetry_equiv_pos_as_xyz
  1  x,y,z
loop_
 _atom_site_label
 _atom_site_occupancy
 _atom_site_fract_x
 _atom_site_fract_y
 _atom_site_fract_z
 _atom_site_thermal_displace_type
 _atom_site_B_iso_or_equiv
 _atom_site_type_symbol
Al1 1.0000000000 0.0000000000 0.9335728237 0.7500000000  Biso 1.0 Al
Al2 1.0000000000 0.5000000000 0.0664271763 0.2500000000  Biso 1.0 Al
Al3 1.0000000000 0.0000000000 0.0664271763 0.2500000000  Biso 1.0 Al
Al4 1.0000000000 0.5000000000 0.9335728237 0.7500000000  Biso 1.0 Al
Al5 1.0000000000 0.7500000000 0.6613813876 0.9024042791  Biso 1.0 Al
Al6 1.0000000000 0.2500000000 0.3386186124 0.0975957209  Biso 1.0 Al
Al7 1.0000000000 0.7500000000 0.3386186124 0.4024042791  Biso 1.0 Al
Al8 1.0000000000 0.2500000000 0.6613813876 0.5975957209  Biso 1.0 Al
Er9 1.0000000000 0.7500000000 0.1623849215 0.9832362830  Biso 1.0 Er
Er10 1.0000000000 0.2500000000 0.8376150785 0.0167637170  Biso 1.0 Er
Er11 1.0000000000 0.7500000000 0.8376150785 0.4832362830  Biso 1.0 Er
Er12 1.0000000000 0.2500000000 0.1623849215 0.5167637170  Biso 1.0 Er
Er13 1.0000000000 0.7500000000 0.4000816079 0.6685465053  Biso 1.0 Er
Er14 1.0000000000 0.2500000000 0.5999183921 0.3314534947  Biso 1.0 Er
Er15 1.0000000000 0.7500000000 0.5999183921 0.1685465053  Biso 1.0 Er
Er16 1.0000000000 0.2500000000 0.4000816079 0.8314534947  Biso 1.0 Er
