# AFLOW.org Repositories
# Al1Hf1   [ORCC,ORCC,oS8] (STD_PRIM doi:1
data_Al1Hf1
_pd_phase_name Al1Hf1
_cell_length_a  5.6785401334
_cell_length_b  5.6785401334
_cell_length_c  4.3048539392
_cell_angle_alpha  90.0000000000
_cell_angle_beta  90.0000000000
_cell_angle_gamma  146.8004153613
_symmetry_space_group_name_H-M  'P1'
_symmetry_Int_Tables_Number  1
loop_
_symmetry_equiv_pos_site_id
_symmetry_equiv_pos_as_xyz
  1  x,y,z
loop_
 _atom_site_label
 _atom_site_occupancy
 _atom_site_fract_x
 _atom_site_fract_y
 _atom_site_fract_z
 _atom_site_thermal_displace_type
 _atom_site_B_iso_or_equiv
 _atom_site_type_symbol
Al1 1.0000000000 0.4299482831 0.5700517169 0.2500000000  Biso 1.0 Al
Al2 1.0000000000 0.5700517169 0.4299482831 0.7500000000  Biso 1.0 Al
Hf3 1.0000000000 0.1635099087 0.8364900913 0.2500000000  Biso 1.0 Hf
Hf4 1.0000000000 0.8364900913 0.1635099087 0.7500000000  Biso 1.0 Hf
