# AFLOW.org Repositories
# Al1Hf1Pt1   [HEX,HEX,hP18] (STD_PRIM doi
data_Al1Hf1Pt1
_pd_phase_name Al1Hf1Pt1
_cell_length_a  7.1291698525
_cell_length_b  7.1291698525
_cell_length_c  7.1178908006
_cell_angle_alpha  90.0000000000
_cell_angle_beta  90.0000000000
_cell_angle_gamma  120.0000000000
_symmetry_space_group_name_H-M  'P1'
_symmetry_Int_Tables_Number  1
loop_
_symmetry_equiv_pos_site_id
_symmetry_equiv_pos_as_xyz
  1  x,y,z
loop_
 _atom_site_label
 _atom_site_occupancy
 _atom_site_fract_x
 _atom_site_fract_y
 _atom_site_fract_z
 _atom_site_thermal_displace_type
 _atom_site_B_iso_or_equiv
 _atom_site_type_symbol
Al1 1.0000000000 0.2588763207 0.0000000000 0.0000000000  Biso 1.0 Al
Al2 1.0000000000 0.0000000000 0.2588763207 0.0000000000  Biso 1.0 Al
Al3 1.0000000000 0.7411207574 0.7411207574 0.0000000000  Biso 1.0 Al
Al4 1.0000000000 0.2588763207 0.0000000000 0.5000000455  Biso 1.0 Al
Al5 1.0000000000 0.0000000000 0.2588763207 0.4999999545  Biso 1.0 Al
Al6 1.0000000000 0.7411207574 0.7411207574 0.5000000000  Biso 1.0 Al
Hf7 1.0000000000 0.4119655794 0.3929471781 0.2500000000  Biso 1.0 Hf
Hf8 1.0000000000 0.6070598191 0.0190227047 0.2500000000  Biso 1.0 Hf
Hf9 1.0000000000 0.9809776264 0.5880351492 0.2500000000  Biso 1.0 Hf
Hf10 1.0000000000 0.3929471781 0.4119655794 0.7500000000  Biso 1.0 Hf
Hf11 1.0000000000 0.0190227047 0.6070598191 0.7500000000  Biso 1.0 Hf
Hf12 1.0000000000 0.5880351492 0.9809776264 0.7500000000  Biso 1.0 Hf
Pt13 1.0000000000 0.3333349064 0.6666651190 0.0259091965  Biso 1.0 Pt
Pt14 1.0000000000 0.3333349064 0.6666651190 0.4740908035  Biso 1.0 Pt
Pt15 1.0000000000 0.6666651190 0.3333349064 0.9740908035  Biso 1.0 Pt
Pt16 1.0000000000 0.6666651190 0.3333349064 0.5259091965  Biso 1.0 Pt
Pt17 1.0000000000 0.0000000000 0.0000000000 0.2500000000  Biso 1.0 Pt
Pt18 1.0000000000 0.0000000000 0.0000000000 0.7500000000  Biso 1.0 Pt
