# AFLOW.org Repositories
# Al1Pd1   [CUB,CUB,cP8] (STD_PRIM doi:10.
data_Al1Pd1
_pd_phase_name Al1Pd1
_cell_length_a  4.8858729025
_cell_length_b  4.8858729025
_cell_length_c  4.8858729025
_cell_angle_alpha  90.0000000000
_cell_angle_beta  90.0000000000
_cell_angle_gamma  90.0000000000
_symmetry_space_group_name_H-M  'P1'
_symmetry_Int_Tables_Number  1
loop_
_symmetry_equiv_pos_site_id
_symmetry_equiv_pos_as_xyz
  1  x,y,z
loop_
 _atom_site_label
 _atom_site_occupancy
 _atom_site_fract_x
 _atom_site_fract_y
 _atom_site_fract_z
 _atom_site_thermal_displace_type
 _atom_site_B_iso_or_equiv
 _atom_site_type_symbol
Al1 1.0000000000 0.1562274567 0.1562274567 0.8437725433  Biso 1.0 Al
Al2 1.0000000000 0.3437725433 0.8437725433 0.3437725433  Biso 1.0 Al
Al3 1.0000000000 0.8437725433 0.6562274567 0.6562274567  Biso 1.0 Al
Al4 1.0000000000 0.6562274567 0.3437725433 0.1562274567  Biso 1.0 Al
Pd5 1.0000000000 0.8521170582 0.8521170582 0.1478829418  Biso 1.0 Pd
Pd6 1.0000000000 0.6478829418 0.1478829418 0.6478829418  Biso 1.0 Pd
Pd7 1.0000000000 0.1478829418 0.3521170582 0.3521170582  Biso 1.0 Pd
Pd8 1.0000000000 0.3521170582 0.6478829418 0.8521170582  Biso 1.0 Pd
