# AFLOW.org Repositories
# Al1Sc2   [HEX,HEX,hP6] (STD_PRIM doi:10.
data_Al1Sc2
_pd_phase_name Al1Sc2
_cell_length_a  4.9697398980
_cell_length_b  4.9697398980
_cell_length_c  6.2701759287
_cell_angle_alpha  90.0000000000
_cell_angle_beta  90.0000000000
_cell_angle_gamma  120.0000000000
_symmetry_space_group_name_H-M  'P1'
_symmetry_Int_Tables_Number  1
loop_
_symmetry_equiv_pos_site_id
_symmetry_equiv_pos_as_xyz
  1  x,y,z
loop_
 _atom_site_label
 _atom_site_occupancy
 _atom_site_fract_x
 _atom_site_fract_y
 _atom_site_fract_z
 _atom_site_thermal_displace_type
 _atom_site_B_iso_or_equiv
 _atom_site_type_symbol
Al1 1.0000000000 0.3333229418 0.6666770582 0.2500000000  Biso 1.0 Al
Al2 1.0000000000 0.6666770582 0.3333229418 0.7500000000  Biso 1.0 Al
Sc3 1.0000000000 0.0000000000 0.0000000000 0.0000000000  Biso 1.0 Sc
Sc4 1.0000000000 0.0000000000 0.0000000000 0.5000000000  Biso 1.0 Sc
Sc5 1.0000000000 0.3333231012 0.6666768988 0.7500000000  Biso 1.0 Sc
Sc6 1.0000000000 0.6666768988 0.3333231012 0.2500000000  Biso 1.0 Sc
