# AFLOW.org Repositories
# Al20La1Ti2   [FCC,FCC,cF184] (STD_PRIM d
data_Al20La1Ti2
_pd_phase_name Al20La1Ti2
_cell_length_a  10.4853778959
_cell_length_b  10.4853778959
_cell_length_c  10.4853778959
_cell_angle_alpha  60.0000000000
_cell_angle_beta  60.0000000000
_cell_angle_gamma  60.0000000000
_symmetry_space_group_name_H-M  'P1'
_symmetry_Int_Tables_Number  1
loop_
_symmetry_equiv_pos_site_id
_symmetry_equiv_pos_as_xyz
  1  x,y,z
loop_
 _atom_site_label
 _atom_site_occupancy
 _atom_site_fract_x
 _atom_site_fract_y
 _atom_site_fract_z
 _atom_site_thermal_displace_type
 _atom_site_B_iso_or_equiv
 _atom_site_type_symbol
Al1 1.0000000000 0.4865220575 0.7634779425 0.4865220575  Biso 1.0 Al
Al2 1.0000000000 0.7634779425 0.4865220575 0.7634779425  Biso 1.0 Al
Al3 1.0000000000 0.4865220575 0.4865220575 0.7634779425  Biso 1.0 Al
Al4 1.0000000000 0.7634779425 0.7634779425 0.4865220575  Biso 1.0 Al
Al5 1.0000000000 0.7634779425 0.4865220575 0.4865220575  Biso 1.0 Al
Al6 1.0000000000 0.4865220575 0.7634779425 0.7634779425  Biso 1.0 Al
Al7 1.0000000000 0.2365220575 0.2365220575 0.5134779425  Biso 1.0 Al
Al8 1.0000000000 0.5134779425 0.5134779425 0.2365220575  Biso 1.0 Al
Al9 1.0000000000 0.2365220575 0.5134779425 0.2365220575  Biso 1.0 Al
Al10 1.0000000000 0.5134779425 0.2365220575 0.5134779425  Biso 1.0 Al
Al11 1.0000000000 0.2365220575 0.5134779425 0.5134779425  Biso 1.0 Al
Al12 1.0000000000 0.5134779425 0.2365220575 0.2365220575  Biso 1.0 Al
Al13 1.0000000000 0.7931334034 0.3252198114 0.3252198114  Biso 1.0 Al
Al14 1.0000000000 0.0564269737 0.3252198114 0.3252198114  Biso 1.0 Al
Al15 1.0000000000 0.3252198114 0.7931334034 0.0564269737  Biso 1.0 Al
Al16 1.0000000000 0.3252198114 0.0564269737 0.7931334034  Biso 1.0 Al
Al17 1.0000000000 0.3252198114 0.7931334034 0.3252198114  Biso 1.0 Al
Al18 1.0000000000 0.3252198114 0.0564269737 0.3252198114  Biso 1.0 Al
Al19 1.0000000000 0.0564269737 0.3252198114 0.7931334034  Biso 1.0 Al
Al20 1.0000000000 0.7931334034 0.3252198114 0.0564269737  Biso 1.0 Al
Al21 1.0000000000 0.3252198114 0.3252198114 0.7931334034  Biso 1.0 Al
Al22 1.0000000000 0.3252198114 0.3252198114 0.0564269737  Biso 1.0 Al
Al23 1.0000000000 0.7931334034 0.0564269737 0.3252198114  Biso 1.0 Al
Al24 1.0000000000 0.0564269737 0.7931334034 0.3252198114  Biso 1.0 Al
Al25 1.0000000000 0.9435730263 0.6747801886 0.6747801886  Biso 1.0 Al
Al26 1.0000000000 0.2068665966 0.6747801886 0.6747801886  Biso 1.0 Al
Al27 1.0000000000 0.6747801886 0.2068665966 0.9435730263  Biso 1.0 Al
Al28 1.0000000000 0.6747801886 0.9435730263 0.2068665966  Biso 1.0 Al
Al29 1.0000000000 0.9435730263 0.2068665966 0.6747801886  Biso 1.0 Al
Al30 1.0000000000 0.2068665966 0.9435730263 0.6747801886  Biso 1.0 Al
Al31 1.0000000000 0.6747801886 0.6747801886 0.2068665966  Biso 1.0 Al
Al32 1.0000000000 0.6747801886 0.6747801886 0.9435730263  Biso 1.0 Al
Al33 1.0000000000 0.9435730263 0.6747801886 0.2068665966  Biso 1.0 Al
Al34 1.0000000000 0.2068665966 0.6747801886 0.9435730263  Biso 1.0 Al
Al35 1.0000000000 0.6747801886 0.9435730263 0.6747801886  Biso 1.0 Al
Al36 1.0000000000 0.6747801886 0.2068665966 0.6747801886  Biso 1.0 Al
Al37 1.0000000000 0.0000000000 0.0000000000 0.0000000000  Biso 1.0 Al
Al38 1.0000000000 0.5000000000 0.0000000000 0.0000000000  Biso 1.0 Al
Al39 1.0000000000 0.0000000000 0.0000000000 0.5000000000  Biso 1.0 Al
Al40 1.0000000000 0.0000000000 0.5000000000 0.0000000000  Biso 1.0 Al
La41 1.0000000000 0.1250000000 0.1250000000 0.1250000000  Biso 1.0 La
La42 1.0000000000 0.8750000000 0.8750000000 0.8750000000  Biso 1.0 La
Ti43 1.0000000000 0.5000000000 0.5000000000 0.5000000000  Biso 1.0 Ti
Ti44 1.0000000000 0.0000000000 0.5000000000 0.5000000000  Biso 1.0 Ti
Ti45 1.0000000000 0.5000000000 0.5000000000 0.0000000000  Biso 1.0 Ti
Ti46 1.0000000000 0.5000000000 0.0000000000 0.5000000000  Biso 1.0 Ti
