# AFLOW.org Repositories
# Al2Os1   [BCT,BCT2,tI6] (STD_PRIM doi:10
data_Al2Os1
_pd_phase_name Al2Os1
_cell_length_a  4.7387547727
_cell_length_b  4.7387547727
_cell_length_c  4.7387547727
_cell_angle_alpha  140.8974701089
_cell_angle_beta  140.8974701089
_cell_angle_gamma  56.4931196901
_symmetry_space_group_name_H-M  'P1'
_symmetry_Int_Tables_Number  1
loop_
_symmetry_equiv_pos_site_id
_symmetry_equiv_pos_as_xyz
  1  x,y,z
loop_
 _atom_site_label
 _atom_site_occupancy
 _atom_site_fract_x
 _atom_site_fract_y
 _atom_site_fract_z
 _atom_site_thermal_displace_type
 _atom_site_B_iso_or_equiv
 _atom_site_type_symbol
Al1 1.0000000000 0.6610612615 0.6610612615 0.0000000000  Biso 1.0 Al
Al2 1.0000000000 0.3389387385 0.3389387385 0.0000000000  Biso 1.0 Al
Os3 1.0000000000 0.0000000000 0.0000000000 0.0000000000  Biso 1.0 Os
