# AFLOW.org Repositories
# Al2O3   [ORC,ORC,oP20] (STD_PRIM doi:10.
data_Al2O3
_pd_phase_name Al2O3
_cell_length_a  4.8455279952
_cell_length_b  4.9844762381
_cell_length_c  7.0893889435
_cell_angle_alpha  90.0000000000
_cell_angle_beta  90.0000000000
_cell_angle_gamma  90.0000000000
_symmetry_space_group_name_H-M  'P1'
_symmetry_Int_Tables_Number  1
loop_
_symmetry_equiv_pos_site_id
_symmetry_equiv_pos_as_xyz
  1  x,y,z
loop_
 _atom_site_label
 _atom_site_occupancy
 _atom_site_fract_x
 _atom_site_fract_y
 _atom_site_fract_z
 _atom_site_thermal_displace_type
 _atom_site_B_iso_or_equiv
 _atom_site_type_symbol
Al1 1.0000000000 0.2477945344 0.9693878371 0.1096877699  Biso 1.0 Al
Al2 1.0000000000 0.2522054656 0.4693878371 0.3903122301  Biso 1.0 Al
Al3 1.0000000000 0.2477945344 0.5306121629 0.8903122301  Biso 1.0 Al
Al4 1.0000000000 0.2522054656 0.0306121629 0.6096877699  Biso 1.0 Al
Al5 1.0000000000 0.7522054656 0.0306121629 0.8903122301  Biso 1.0 Al
Al6 1.0000000000 0.7477945344 0.5306121629 0.6096877699  Biso 1.0 Al
Al7 1.0000000000 0.7522054656 0.4693878371 0.1096877699  Biso 1.0 Al
Al8 1.0000000000 0.7477945344 0.9693878371 0.3903122301  Biso 1.0 Al
O9 1.0000000000 0.3933794397 0.8974477983 0.8458819718  Biso 1.0 O
O10 1.0000000000 0.1066205603 0.3974477983 0.6541180282  Biso 1.0 O
O11 1.0000000000 0.3933794397 0.6025522017 0.1541180282  Biso 1.0 O
O12 1.0000000000 0.1066205603 0.1025522017 0.3458819718  Biso 1.0 O
O13 1.0000000000 0.6066205603 0.1025522017 0.1541180282  Biso 1.0 O
O14 1.0000000000 0.8933794397 0.6025522017 0.3458819718  Biso 1.0 O
O15 1.0000000000 0.6066205603 0.3974477983 0.8458819718  Biso 1.0 O
O16 1.0000000000 0.8933794397 0.8974477983 0.6541180282  Biso 1.0 O
O17 1.0000000000 0.9503316990 0.7500000000 0.0000000000  Biso 1.0 O
O18 1.0000000000 0.5496683010 0.2500000000 0.5000000000  Biso 1.0 O
O19 1.0000000000 0.0496683010 0.2500000000 0.0000000000  Biso 1.0 O
O20 1.0000000000 0.4503316990 0.7500000000 0.5000000000  Biso 1.0 O
