# AFLOW.org Repositories
# Al2Pd5Y1   [BCT,BCT2,tI16] (STD_PRIM doi
data_Al2Pd5Y1
_pd_phase_name Al2Pd5Y1
_cell_length_a  8.0098465286
_cell_length_b  8.0098465286
_cell_length_c  8.0098465286
_cell_angle_alpha  150.0913815624
_cell_angle_beta  150.0913815624
_cell_angle_gamma  42.8072813233
_symmetry_space_group_name_H-M  'P1'
_symmetry_Int_Tables_Number  1
loop_
_symmetry_equiv_pos_site_id
_symmetry_equiv_pos_as_xyz
  1  x,y,z
loop_
 _atom_site_label
 _atom_site_occupancy
 _atom_site_fract_x
 _atom_site_fract_y
 _atom_site_fract_z
 _atom_site_thermal_displace_type
 _atom_site_B_iso_or_equiv
 _atom_site_type_symbol
Al1 1.0000000000 0.7460943690 0.7460943690 0.0000000000  Biso 1.0 Al
Al2 1.0000000000 0.2539056310 0.2539056310 0.0000000000  Biso 1.0 Al
Pd3 1.0000000000 0.5000000000 0.5000000000 0.0000000000  Biso 1.0 Pd
Pd4 1.0000000000 0.8546704969 0.3546704969 0.5000000000  Biso 1.0 Pd
Pd5 1.0000000000 0.3546704969 0.8546704969 0.5000000000  Biso 1.0 Pd
Pd6 1.0000000000 0.1453295031 0.6453295031 0.5000000000  Biso 1.0 Pd
Pd7 1.0000000000 0.6453295031 0.1453295031 0.5000000000  Biso 1.0 Pd
Y8 1.0000000000 0.0000000000 0.0000000000 0.0000000000  Biso 1.0 Y
