# AFLOW.org Repositories
# Al2Tb3   [TET,TET,tP20] (STD_PRIM doi:10
data_Al2Tb3
_pd_phase_name Al2Tb3
_cell_length_a  8.2795822688
_cell_length_b  8.2795822688
_cell_length_c  7.6147285553
_cell_angle_alpha  90.0000000000
_cell_angle_beta  90.0000000000
_cell_angle_gamma  90.0000000000
_symmetry_space_group_name_H-M  'P1'
_symmetry_Int_Tables_Number  1
loop_
_symmetry_equiv_pos_site_id
_symmetry_equiv_pos_as_xyz
  1  x,y,z
loop_
 _atom_site_label
 _atom_site_occupancy
 _atom_site_fract_x
 _atom_site_fract_y
 _atom_site_fract_z
 _atom_site_thermal_displace_type
 _atom_site_B_iso_or_equiv
 _atom_site_type_symbol
Al1 1.0000000000 0.3807485876 0.3807485876 0.0621738959  Biso 1.0 Al
Al2 1.0000000000 0.6192514124 0.6192514124 0.0621738959  Biso 1.0 Al
Al3 1.0000000000 0.1192514124 0.8807485876 0.5621738959  Biso 1.0 Al
Al4 1.0000000000 0.8807485876 0.1192514124 0.5621738959  Biso 1.0 Al
Al5 1.0000000000 0.3806312318 0.3806312318 0.4501772811  Biso 1.0 Al
Al6 1.0000000000 0.6193687682 0.6193687682 0.4501772811  Biso 1.0 Al
Al7 1.0000000000 0.1193687682 0.8806312318 0.9501772811  Biso 1.0 Al
Al8 1.0000000000 0.8806312318 0.1193687682 0.9501772811  Biso 1.0 Al
Tb9 1.0000000000 0.0000000000 0.5000000000 0.0064332288  Biso 1.0 Tb
Tb10 1.0000000000 0.0000000000 0.5000000000 0.5064332288  Biso 1.0 Tb
Tb11 1.0000000000 0.5000000000 0.0000000000 0.5064332288  Biso 1.0 Tb
Tb12 1.0000000000 0.5000000000 0.0000000000 0.0064332288  Biso 1.0 Tb
Tb13 1.0000000000 0.1492570425 0.1492570425 0.2560907570  Biso 1.0 Tb
Tb14 1.0000000000 0.8507429575 0.8507429575 0.2560907570  Biso 1.0 Tb
Tb15 1.0000000000 0.3507429575 0.6492570425 0.7560907570  Biso 1.0 Tb
Tb16 1.0000000000 0.6492570425 0.3507429575 0.7560907570  Biso 1.0 Tb
Tb17 1.0000000000 0.2012174085 0.2012174085 0.7561248372  Biso 1.0 Tb
Tb18 1.0000000000 0.7987825915 0.7987825915 0.7561248372  Biso 1.0 Tb
Tb19 1.0000000000 0.2987825915 0.7012174085 0.2561248372  Biso 1.0 Tb
Tb20 1.0000000000 0.7012174085 0.2987825915 0.2561248372  Biso 1.0 Tb
