# AFLOW.org Repositories
# Al3Mo1   [MCLC,MCLC1,mS32] (STD_PRIM doi
data_Al3Mo1
_pd_phase_name Al3Mo1
_cell_length_a  8.4417186279
_cell_length_b  8.4417186279
_cell_length_c  8.4196022158
_cell_angle_alpha  78.4511375972
_cell_angle_beta  78.4511375972
_cell_angle_gamma  24.6947947974
_symmetry_space_group_name_H-M  'P1'
_symmetry_Int_Tables_Number  1
loop_
_symmetry_equiv_pos_site_id
_symmetry_equiv_pos_as_xyz
  1  x,y,z
loop_
 _atom_site_label
 _atom_site_occupancy
 _atom_site_fract_x
 _atom_site_fract_y
 _atom_site_fract_z
 _atom_site_thermal_displace_type
 _atom_site_B_iso_or_equiv
 _atom_site_type_symbol
Al1 1.0000000000 0.6279169116 0.6279169116 0.7551611792  Biso 1.0 Al
Al2 1.0000000000 0.1281463695 0.1281463695 0.4967496315  Biso 1.0 Al
Al3 1.0000000000 0.6227321011 0.6227321011 0.2598446444  Biso 1.0 Al
Al4 1.0000000000 0.7500308797 0.7500308797 0.9541395466  Biso 1.0 Al
Al5 1.0000000000 0.2513415924 0.2513415924 0.6948872496  Biso 1.0 Al
Al6 1.0000000000 0.2501945836 0.2501945836 0.2055481237  Biso 1.0 Al
Al7 1.0000000000 0.8736021867 0.8736021867 0.6564611088  Biso 1.0 Al
Al8 1.0000000000 0.3750311125 0.3750311125 0.3964980080  Biso 1.0 Al
Al9 1.0000000000 0.8748203997 0.8748203997 0.1460039382  Biso 1.0 Al
Al10 1.0000000000 0.9966608776 0.9966608776 0.8566095141  Biso 1.0 Al
Al11 1.0000000000 0.4967494112 0.4967494112 0.5980352697  Biso 1.0 Al
Al12 1.0000000000 0.5026654420 0.5026654420 0.0934880519  Biso 1.0 Al
Mo13 1.0000000000 0.1358086329 0.1358086329 0.9969684691  Biso 1.0 Mo
Mo14 1.0000000000 0.7578171767 0.7578171767 0.4474559520  Biso 1.0 Mo
Mo15 1.0000000000 0.3671921476 0.3671921476 0.9043003675  Biso 1.0 Mo
Mo16 1.0000000000 0.9892901754 0.9892901754 0.3556489458  Biso 1.0 Mo
