# AFLOW.org Repositories
# Al4Ce1Ni1   [ORCC,ORCC,oS24] (STD_PRIM d
data_Al4Ce1Ni1
_pd_phase_name Al4Ce1Ni1
_cell_length_a  8.0482138792
_cell_length_b  8.0482138792
_cell_length_c  6.5615517809
_cell_angle_alpha  90.0000000000
_cell_angle_beta  90.0000000000
_cell_angle_gamma  150.4274571092
_symmetry_space_group_name_H-M  'P1'
_symmetry_Int_Tables_Number  1
loop_
_symmetry_equiv_pos_site_id
_symmetry_equiv_pos_as_xyz
  1  x,y,z
loop_
 _atom_site_label
 _atom_site_occupancy
 _atom_site_fract_x
 _atom_site_fract_y
 _atom_site_fract_z
 _atom_site_thermal_displace_type
 _atom_site_B_iso_or_equiv
 _atom_site_type_symbol
Al1 1.0000000000 0.5000000000 0.5000000000 0.0000000000  Biso 1.0 Al
Al2 1.0000000000 0.5000000000 0.5000000000 0.5000000000  Biso 1.0 Al
Al3 1.0000000000 0.0790853164 0.9209146836 0.7500000000  Biso 1.0 Al
Al4 1.0000000000 0.9209146836 0.0790853164 0.2500000000  Biso 1.0 Al
Al5 1.0000000000 0.6896517457 0.3103482543 0.9481745365  Biso 1.0 Al
Al6 1.0000000000 0.3103482543 0.6896517457 0.4481745365  Biso 1.0 Al
Al7 1.0000000000 0.6896517457 0.3103482543 0.5518254635  Biso 1.0 Al
Al8 1.0000000000 0.3103482543 0.6896517457 0.0518254635  Biso 1.0 Al
Ce9 1.0000000000 0.8884717380 0.1115282620 0.7500000000  Biso 1.0 Ce
Ce10 1.0000000000 0.1115282620 0.8884717380 0.2500000000  Biso 1.0 Ce
Ni11 1.0000000000 0.2264284672 0.7735715328 0.7500000000  Biso 1.0 Ni
Ni12 1.0000000000 0.7735715328 0.2264284672 0.2500000000  Biso 1.0 Ni
