# AFLOW.org Repositories
# Al4C4Si1   [HEX,HEX,hP18] (STD_PRIM doi:
data_Al4C4Si1
_pd_phase_name Al4C4Si1
_cell_length_a  3.3265543081
_cell_length_b  3.3265543081
_cell_length_c  21.9231187584
_cell_angle_alpha  90.0000000000
_cell_angle_beta  90.0000000000
_cell_angle_gamma  120.0000000000
_symmetry_space_group_name_H-M  'P1'
_symmetry_Int_Tables_Number  1
loop_
_symmetry_equiv_pos_site_id
_symmetry_equiv_pos_as_xyz
  1  x,y,z
loop_
 _atom_site_label
 _atom_site_occupancy
 _atom_site_fract_x
 _atom_site_fract_y
 _atom_site_fract_z
 _atom_site_thermal_displace_type
 _atom_site_B_iso_or_equiv
 _atom_site_type_symbol
Al1 1.0000000000 0.3333479831 0.6666739915 0.0511794889  Biso 1.0 Al
Al2 1.0000000000 0.6666520169 0.3333260085 0.5511794889  Biso 1.0 Al
Al3 1.0000000000 0.0000000000 0.0000000000 0.1575675968  Biso 1.0 Al
Al4 1.0000000000 0.0000000000 0.0000000000 0.6575675968  Biso 1.0 Al
Al5 1.0000000000 0.3333605632 0.6666802816 0.2455652112  Biso 1.0 Al
Al6 1.0000000000 0.6666394368 0.3333197184 0.7455652112  Biso 1.0 Al
Al7 1.0000000000 0.0000000000 0.0000000000 0.3454438180  Biso 1.0 Al
Al8 1.0000000000 0.0000000000 0.0000000000 0.8454438180  Biso 1.0 Al
C9 1.0000000000 0.3333603450 0.6666801725 0.1367144507  Biso 1.0 C
C10 1.0000000000 0.6666396550 0.3333198275 0.6367144507  Biso 1.0 C
C11 1.0000000000 0.0000000000 0.0000000000 0.9968304050  Biso 1.0 C
C12 1.0000000000 0.0000000000 0.0000000000 0.4968304050  Biso 1.0 C
C13 1.0000000000 0.0000000000 0.0000000000 0.2530165138  Biso 1.0 C
C14 1.0000000000 0.0000000000 0.0000000000 0.7530165138  Biso 1.0 C
C15 1.0000000000 0.3333574147 0.6666787073 0.3733630383  Biso 1.0 C
C16 1.0000000000 0.6666425853 0.3333212927 0.8733630383  Biso 1.0 C
Si17 1.0000000000 0.3333426117 0.6666713059 0.4533194773  Biso 1.0 Si
Si18 1.0000000000 0.6666573883 0.3333286941 0.9533194773  Biso 1.0 Si
