# AFLOW.org Repositories
# Al5Ba5Sn1   [HEX,HEX,hP11] (STD_PRIM doi
data_Al5Ba5Sn1
_pd_phase_name Al5Ba5Sn1
_cell_length_a  6.1272791155
_cell_length_b  6.1272791155
_cell_length_c  11.1517413688
_cell_angle_alpha  90.0000000000
_cell_angle_beta  90.0000000000
_cell_angle_gamma  120.0000000000
_symmetry_space_group_name_H-M  'P1'
_symmetry_Int_Tables_Number  1
loop_
_symmetry_equiv_pos_site_id
_symmetry_equiv_pos_as_xyz
  1  x,y,z
loop_
 _atom_site_label
 _atom_site_occupancy
 _atom_site_fract_x
 _atom_site_fract_y
 _atom_site_fract_z
 _atom_site_thermal_displace_type
 _atom_site_B_iso_or_equiv
 _atom_site_type_symbol
Al1 1.0000000000 0.3333367744 0.6666683872 0.3257443032  Biso 1.0 Al
Al2 1.0000000000 0.3333367744 0.6666683872 0.6742556968  Biso 1.0 Al
Al3 1.0000000000 0.9721193305 0.4860596652 0.5000000000  Biso 1.0 Al
Al4 1.0000000000 0.5139505846 0.4860569560 0.5000000000  Biso 1.0 Al
Al5 1.0000000000 0.5139505846 0.0278936285 0.5000000000  Biso 1.0 Al
Ba6 1.0000000000 0.0000000000 0.0000000000 0.3292210950  Biso 1.0 Ba
Ba7 1.0000000000 0.0000000000 0.0000000000 0.6707789050  Biso 1.0 Ba
Ba8 1.0000000000 0.6666704814 0.3333352407 0.2019013155  Biso 1.0 Ba
Ba9 1.0000000000 0.6666704814 0.3333352407 0.7980986845  Biso 1.0 Ba
Ba10 1.0000000000 0.3333389777 0.6666694889 0.0000000000  Biso 1.0 Ba
Sn11 1.0000000000 0.0000000000 0.0000000000 0.0000000000  Biso 1.0 Sn
