# AFLOW.org Repositories
# Al7Cu16Zr6   [FCC,FCC,cF116] (STD_PRIM d
data_Al7Cu16Zr6
_pd_phase_name Al7Cu16Zr6
_cell_length_a  8.4496579364
_cell_length_b  8.4496579364
_cell_length_c  8.4496579364
_cell_angle_alpha  60.0000000000
_cell_angle_beta  60.0000000000
_cell_angle_gamma  60.0000000000
_symmetry_space_group_name_H-M  'P1'
_symmetry_Int_Tables_Number  1
loop_
_symmetry_equiv_pos_site_id
_symmetry_equiv_pos_as_xyz
  1  x,y,z
loop_
 _atom_site_label
 _atom_site_occupancy
 _atom_site_fract_x
 _atom_site_fract_y
 _atom_site_fract_z
 _atom_site_thermal_displace_type
 _atom_site_B_iso_or_equiv
 _atom_site_type_symbol
Al1 1.0000000000 0.0000000000 0.0000000000 0.0000000000  Biso 1.0 Al
Al2 1.0000000000 0.5000000000 0.0000000000 0.0000000000  Biso 1.0 Al
Al3 1.0000000000 0.0000000000 0.5000000000 0.5000000000  Biso 1.0 Al
Al4 1.0000000000 0.0000000000 0.0000000000 0.5000000000  Biso 1.0 Al
Al5 1.0000000000 0.5000000000 0.5000000000 0.0000000000  Biso 1.0 Al
Al6 1.0000000000 0.0000000000 0.5000000000 0.0000000000  Biso 1.0 Al
Al7 1.0000000000 0.5000000000 0.0000000000 0.5000000000  Biso 1.0 Al
Cu8 1.0000000000 0.8806230017 0.8806230017 0.8806230017  Biso 1.0 Cu
Cu9 1.0000000000 0.8806230017 0.3581309950 0.8806230017  Biso 1.0 Cu
Cu10 1.0000000000 0.8806230017 0.8806230017 0.3581309950  Biso 1.0 Cu
Cu11 1.0000000000 0.3581309950 0.8806230017 0.8806230017  Biso 1.0 Cu
Cu12 1.0000000000 0.1193769983 0.6418690050 0.1193769983  Biso 1.0 Cu
Cu13 1.0000000000 0.1193769983 0.1193769983 0.1193769983  Biso 1.0 Cu
Cu14 1.0000000000 0.1193769983 0.1193769983 0.6418690050  Biso 1.0 Cu
Cu15 1.0000000000 0.6418690050 0.1193769983 0.1193769983  Biso 1.0 Cu
Cu16 1.0000000000 0.6711646414 0.6711646414 0.6711646414  Biso 1.0 Cu
Cu17 1.0000000000 0.6711646414 0.9865060758 0.6711646414  Biso 1.0 Cu
Cu18 1.0000000000 0.6711646414 0.6711646414 0.9865060758  Biso 1.0 Cu
Cu19 1.0000000000 0.9865060758 0.6711646414 0.6711646414  Biso 1.0 Cu
Cu20 1.0000000000 0.3288353586 0.0134939242 0.3288353586  Biso 1.0 Cu
Cu21 1.0000000000 0.3288353586 0.3288353586 0.3288353586  Biso 1.0 Cu
Cu22 1.0000000000 0.3288353586 0.3288353586 0.0134939242  Biso 1.0 Cu
Cu23 1.0000000000 0.0134939242 0.3288353586 0.3288353586  Biso 1.0 Cu
Zr24 1.0000000000 0.2962044173 0.7037955827 0.7037955827  Biso 1.0 Zr
Zr25 1.0000000000 0.7037955827 0.2962044173 0.2962044173  Biso 1.0 Zr
Zr26 1.0000000000 0.7037955827 0.7037955827 0.2962044173  Biso 1.0 Zr
Zr27 1.0000000000 0.2962044173 0.2962044173 0.7037955827  Biso 1.0 Zr
Zr28 1.0000000000 0.7037955827 0.2962044173 0.7037955827  Biso 1.0 Zr
Zr29 1.0000000000 0.2962044173 0.7037955827 0.2962044173  Biso 1.0 Zr
