# AFLOW.org Repositories
# As1Co1S1   [ORC,ORC,oP12] (STD_PRIM doi:
data_As1Co1S1
_pd_phase_name As1Co1S1
_cell_length_a  5.5968397350
_cell_length_b  5.5908950958
_cell_length_c  5.6022841749
_cell_angle_alpha  90.0000000000
_cell_angle_beta  90.0000000000
_cell_angle_gamma  90.0000000000
_symmetry_space_group_name_H-M  'P1'
_symmetry_Int_Tables_Number  1
loop_
_symmetry_equiv_pos_site_id
_symmetry_equiv_pos_as_xyz
  1  x,y,z
loop_
 _atom_site_label
 _atom_site_occupancy
 _atom_site_fract_x
 _atom_site_fract_y
 _atom_site_fract_z
 _atom_site_thermal_displace_type
 _atom_site_B_iso_or_equiv
 _atom_site_type_symbol
As1 1.0000000000 0.6198488471 0.3809485681 0.6301753053  Biso 1.0 As
As2 1.0000000000 0.3801511529 0.8809485681 0.3698246947  Biso 1.0 As
As3 1.0000000000 0.1198488471 0.3809485681 0.3698246947  Biso 1.0 As
As4 1.0000000000 0.8801511529 0.8809485681 0.6301753053  Biso 1.0 As
Co5 1.0000000000 0.9940228851 0.9986935984 0.2390512710  Biso 1.0 Co
Co6 1.0000000000 0.0059771149 0.4986935984 0.7609487290  Biso 1.0 Co
Co7 1.0000000000 0.4940228851 0.9986935984 0.7609487290  Biso 1.0 Co
Co8 1.0000000000 0.5059771149 0.4986935984 0.2390512710  Biso 1.0 Co
S9 1.0000000000 0.3825491745 0.6180578335 0.8687806272  Biso 1.0 S
S10 1.0000000000 0.6174508255 0.1180578335 0.1312193728  Biso 1.0 S
S11 1.0000000000 0.8825491745 0.6180578335 0.1312193728  Biso 1.0 S
S12 1.0000000000 0.1174508255 0.1180578335 0.8687806272  Biso 1.0 S
