# AFLOW.org Repositories
# As1Co1S1   [CUB,CUB,cP12] (STD_PRIM doi:
data_As1Co1S1
_pd_phase_name As1Co1S1
_cell_length_a  5.5940512791
_cell_length_b  5.5940512791
_cell_length_c  5.5940512791
_cell_angle_alpha  90.0000000000
_cell_angle_beta  90.0000000000
_cell_angle_gamma  90.0000000000
_symmetry_space_group_name_H-M  'P1'
_symmetry_Int_Tables_Number  1
loop_
_symmetry_equiv_pos_site_id
_symmetry_equiv_pos_as_xyz
  1  x,y,z
loop_
 _atom_site_label
 _atom_site_occupancy
 _atom_site_fract_x
 _atom_site_fract_y
 _atom_site_fract_z
 _atom_site_thermal_displace_type
 _atom_site_B_iso_or_equiv
 _atom_site_type_symbol
As1 1.0000000000 0.6208234554 0.6208234554 0.3791765446  Biso 1.0 As
As2 1.0000000000 0.8791765446 0.3791765446 0.8791765446  Biso 1.0 As
As3 1.0000000000 0.3791765446 0.1208234554 0.1208234554  Biso 1.0 As
As4 1.0000000000 0.1208234554 0.8791765446 0.6208234554  Biso 1.0 As
Co5 1.0000000000 0.9921114344 0.9921114344 0.0078885656  Biso 1.0 Co
Co6 1.0000000000 0.5078885656 0.0078885656 0.5078885656  Biso 1.0 Co
Co7 1.0000000000 0.0078885656 0.4921114344 0.4921114344  Biso 1.0 Co
Co8 1.0000000000 0.4921114344 0.5078885656 0.9921114344  Biso 1.0 Co
S9 1.0000000000 0.3830301851 0.3830301851 0.6169698149  Biso 1.0 S
S10 1.0000000000 0.1169698149 0.6169698149 0.1169698149  Biso 1.0 S
S11 1.0000000000 0.6169698149 0.8830301851 0.8830301851  Biso 1.0 S
S12 1.0000000000 0.8830301851 0.1169698149 0.3830301851  Biso 1.0 S
