# AFLOW.org Repositories
# As1Cu1S1   [ORC,ORC,oP12] (STD_PRIM doi:
data_As1Cu1S1
_pd_phase_name As1Cu1S1
_cell_length_a  3.8174346678
_cell_length_b  5.5054461021
_cell_length_c  11.4229680316
_cell_angle_alpha  90.0000000000
_cell_angle_beta  90.0000000000
_cell_angle_gamma  90.0000000000
_symmetry_space_group_name_H-M  'P1'
_symmetry_Int_Tables_Number  1
loop_
_symmetry_equiv_pos_site_id
_symmetry_equiv_pos_as_xyz
  1  x,y,z
loop_
 _atom_site_label
 _atom_site_occupancy
 _atom_site_fract_x
 _atom_site_fract_y
 _atom_site_fract_z
 _atom_site_thermal_displace_type
 _atom_site_B_iso_or_equiv
 _atom_site_type_symbol
As1 1.0000000000 0.2189056968 0.8498131113 0.4861637622  Biso 1.0 As
As2 1.0000000000 0.7189056968 0.1501868887 0.5138362378  Biso 1.0 As
As3 1.0000000000 0.2189056968 0.6501868887 0.9861637622  Biso 1.0 As
As4 1.0000000000 0.7189056968 0.3498131113 0.0138362378  Biso 1.0 As
Cu5 1.0000000000 0.2213619874 0.5599628071 0.3248550639  Biso 1.0 Cu
Cu6 1.0000000000 0.7213619874 0.4400371929 0.6751449361  Biso 1.0 Cu
Cu7 1.0000000000 0.2213619874 0.9400371929 0.8248550639  Biso 1.0 Cu
Cu8 1.0000000000 0.7213619874 0.0599628071 0.1751449361  Biso 1.0 Cu
S9 1.0000000000 0.2211223158 0.8238839741 0.1674683414  Biso 1.0 S
S10 1.0000000000 0.7211223158 0.1761160259 0.8325316586  Biso 1.0 S
S11 1.0000000000 0.2211223158 0.6761160259 0.6674683414  Biso 1.0 S
S12 1.0000000000 0.7211223158 0.3238839741 0.3325316586  Biso 1.0 S
