# AFLOW.org Repositories
# As1Na3S3   [CUB,CUB,cP28] (STD_PRIM doi:
data_As1Na3S3
_pd_phase_name As1Na3S3
_cell_length_a  8.5967330153
_cell_length_b  8.5967330153
_cell_length_c  8.5967330153
_cell_angle_alpha  90.0000000000
_cell_angle_beta  90.0000000000
_cell_angle_gamma  90.0000000000
_symmetry_space_group_name_H-M  'P1'
_symmetry_Int_Tables_Number  1
loop_
_symmetry_equiv_pos_site_id
_symmetry_equiv_pos_as_xyz
  1  x,y,z
loop_
 _atom_site_label
 _atom_site_occupancy
 _atom_site_fract_x
 _atom_site_fract_y
 _atom_site_fract_z
 _atom_site_thermal_displace_type
 _atom_site_B_iso_or_equiv
 _atom_site_type_symbol
As1 1.0000000000 0.9713914619 0.9713914619 0.0286085381  Biso 1.0 As
As2 1.0000000000 0.5286085381 0.0286085381 0.5286085381  Biso 1.0 As
As3 1.0000000000 0.0286085381 0.4713914619 0.4713914619  Biso 1.0 As
As4 1.0000000000 0.4713914619 0.5286085381 0.9713914619  Biso 1.0 As
Na5 1.0000000000 0.4206945734 0.4206945734 0.5793054266  Biso 1.0 Na
Na6 1.0000000000 0.0793054266 0.5793054266 0.0793054266  Biso 1.0 Na
Na7 1.0000000000 0.5793054266 0.9206945734 0.9206945734  Biso 1.0 Na
Na8 1.0000000000 0.9206945734 0.0793054266 0.4206945734  Biso 1.0 Na
Na9 1.0000000000 0.6823385498 0.6823385498 0.3176614502  Biso 1.0 Na
Na10 1.0000000000 0.8176614502 0.3176614502 0.8176614502  Biso 1.0 Na
Na11 1.0000000000 0.3176614502 0.1823385498 0.1823385498  Biso 1.0 Na
Na12 1.0000000000 0.1823385498 0.8176614502 0.6823385498  Biso 1.0 Na
Na13 1.0000000000 0.1897621438 0.1897621438 0.8102378562  Biso 1.0 Na
Na14 1.0000000000 0.3102378562 0.8102378562 0.3102378562  Biso 1.0 Na
Na15 1.0000000000 0.8102378562 0.6897621438 0.6897621438  Biso 1.0 Na
Na16 1.0000000000 0.6897621438 0.3102378562 0.1897621438  Biso 1.0 Na
S17 1.0000000000 0.7757285997 0.3939449014 0.4982338406  Biso 1.0 S
S18 1.0000000000 0.7242714003 0.6060550986 0.9982338406  Biso 1.0 S
S19 1.0000000000 0.2242714003 0.8939449014 0.0017661594  Biso 1.0 S
S20 1.0000000000 0.2757285997 0.1060550986 0.5017661594  Biso 1.0 S
S21 1.0000000000 0.5017661594 0.7757285997 0.6060550986  Biso 1.0 S
S22 1.0000000000 0.0017661594 0.7242714003 0.3939449014  Biso 1.0 S
S23 1.0000000000 0.9982338406 0.2242714003 0.1060550986  Biso 1.0 S
S24 1.0000000000 0.4982338406 0.2757285997 0.8939449014  Biso 1.0 S
S25 1.0000000000 0.3939449014 0.5017661594 0.2242714003  Biso 1.0 S
S26 1.0000000000 0.6060550986 0.0017661594 0.2757285997  Biso 1.0 S
S27 1.0000000000 0.8939449014 0.9982338406 0.7757285997  Biso 1.0 S
S28 1.0000000000 0.1060550986 0.4982338406 0.7242714003  Biso 1.0 S
