# AFLOW.org Repositories
# As1Nb1Ni1   [ORC,ORC,oP12] (STD_PRIM doi
data_As1Nb1Ni1
_pd_phase_name As1Nb1Ni1
_cell_length_a  3.7075602375
_cell_length_b  6.3544174951
_cell_length_c  7.2977437607
_cell_angle_alpha  90.0000000000
_cell_angle_beta  90.0000000000
_cell_angle_gamma  90.0000000000
_symmetry_space_group_name_H-M  'P1'
_symmetry_Int_Tables_Number  1
loop_
_symmetry_equiv_pos_site_id
_symmetry_equiv_pos_as_xyz
  1  x,y,z
loop_
 _atom_site_label
 _atom_site_occupancy
 _atom_site_fract_x
 _atom_site_fract_y
 _atom_site_fract_z
 _atom_site_thermal_displace_type
 _atom_site_B_iso_or_equiv
 _atom_site_type_symbol
As1 1.0000000000 0.2500000000 0.7882956456 0.3791378235  Biso 1.0 As
As2 1.0000000000 0.7500000000 0.7117043544 0.8791378235  Biso 1.0 As
As3 1.0000000000 0.7500000000 0.2117043544 0.6208621765  Biso 1.0 As
As4 1.0000000000 0.2500000000 0.2882956456 0.1208621765  Biso 1.0 As
Nb5 1.0000000000 0.2500000000 0.0176451399 0.8367704603  Biso 1.0 Nb
Nb6 1.0000000000 0.7500000000 0.4823548601 0.3367704603  Biso 1.0 Nb
Nb7 1.0000000000 0.7500000000 0.9823548601 0.1632295397  Biso 1.0 Nb
Nb8 1.0000000000 0.2500000000 0.5176451399 0.6632295397  Biso 1.0 Nb
Ni9 1.0000000000 0.2500000000 0.1566355460 0.4282418178  Biso 1.0 Ni
Ni10 1.0000000000 0.7500000000 0.3433644540 0.9282418178  Biso 1.0 Ni
Ni11 1.0000000000 0.7500000000 0.8433644540 0.5717581822  Biso 1.0 Ni
Ni12 1.0000000000 0.2500000000 0.6566355460 0.0717581822  Biso 1.0 Ni
