# AFLOW.org Repositories
# As1Rh2   [ORC,ORC,oP12] (STD_PRIM doi:10
data_As1Rh2
_pd_phase_name As1Rh2
_cell_length_a  3.9382936411
_cell_length_b  5.9282056725
_cell_length_c  7.4301881362
_cell_angle_alpha  90.0000000000
_cell_angle_beta  90.0000000000
_cell_angle_gamma  90.0000000000
_symmetry_space_group_name_H-M  'P1'
_symmetry_Int_Tables_Number  1
loop_
_symmetry_equiv_pos_site_id
_symmetry_equiv_pos_as_xyz
  1  x,y,z
loop_
 _atom_site_label
 _atom_site_occupancy
 _atom_site_fract_x
 _atom_site_fract_y
 _atom_site_fract_z
 _atom_site_thermal_displace_type
 _atom_site_B_iso_or_equiv
 _atom_site_type_symbol
As1 1.0000000000 0.2500000000 0.2385005130 0.6153534714  Biso 1.0 As
As2 1.0000000000 0.7500000000 0.2614994870 0.1153534714  Biso 1.0 As
As3 1.0000000000 0.7500000000 0.7614994870 0.3846465286  Biso 1.0 As
As4 1.0000000000 0.2500000000 0.7385005130 0.8846465286  Biso 1.0 As
Rh5 1.0000000000 0.2500000000 0.0366527862 0.3273226473  Biso 1.0 Rh
Rh6 1.0000000000 0.7500000000 0.4633472138 0.8273226473  Biso 1.0 Rh
Rh7 1.0000000000 0.7500000000 0.9633472138 0.6726773527  Biso 1.0 Rh
Rh8 1.0000000000 0.2500000000 0.5366527862 0.1726773527  Biso 1.0 Rh
Rh9 1.0000000000 0.2500000000 0.1445552935 0.9290485359  Biso 1.0 Rh
Rh10 1.0000000000 0.7500000000 0.3554447065 0.4290485359  Biso 1.0 Rh
Rh11 1.0000000000 0.7500000000 0.8554447065 0.0709514641  Biso 1.0 Rh
Rh12 1.0000000000 0.2500000000 0.6445552935 0.5709514641  Biso 1.0 Rh
