# AFLOW.org Repositories
# As1Zr1   [HEX,HEX,hP8] (STD_PRIM doi:10.
data_As1Zr1
_pd_phase_name As1Zr1
_cell_length_a  3.8385754562
_cell_length_b  3.8385754562
_cell_length_c  12.9736183884
_cell_angle_alpha  90.0000000000
_cell_angle_beta  90.0000000000
_cell_angle_gamma  120.0000000000
_symmetry_space_group_name_H-M  'P1'
_symmetry_Int_Tables_Number  1
loop_
_symmetry_equiv_pos_site_id
_symmetry_equiv_pos_as_xyz
  1  x,y,z
loop_
 _atom_site_label
 _atom_site_occupancy
 _atom_site_fract_x
 _atom_site_fract_y
 _atom_site_fract_z
 _atom_site_thermal_displace_type
 _atom_site_B_iso_or_equiv
 _atom_site_type_symbol
As1 1.0000000000 0.0000000000 0.0000000000 0.0000000000  Biso 1.0 As
As2 1.0000000000 0.0000000000 0.0000000000 0.5000000000  Biso 1.0 As
As3 1.0000000000 0.3333320228 0.6666679772 0.7500000000  Biso 1.0 As
As4 1.0000000000 0.6666679772 0.3333320228 0.2500000000  Biso 1.0 As
Zr5 1.0000000000 0.3333290871 0.6666709129 0.1164821280  Biso 1.0 Zr
Zr6 1.0000000000 0.6666709129 0.3333290871 0.6164821280  Biso 1.0 Zr
Zr7 1.0000000000 0.6666709129 0.3333290871 0.8835178720  Biso 1.0 Zr
Zr8 1.0000000000 0.3333290871 0.6666709129 0.3835178720  Biso 1.0 Zr
