# AFLOW.org Repositories
# As1Zn1   [ORC,ORC,oP16] (STD_PRIM doi:10
data_As1Zn1
_pd_phase_name As1Zn1
_cell_length_a  5.6599090285
_cell_length_b  7.3165444541
_cell_length_c  7.5998082667
_cell_angle_alpha  90.0000000000
_cell_angle_beta  90.0000000000
_cell_angle_gamma  90.0000000000
_symmetry_space_group_name_H-M  'P1'
_symmetry_Int_Tables_Number  1
loop_
_symmetry_equiv_pos_site_id
_symmetry_equiv_pos_as_xyz
  1  x,y,z
loop_
 _atom_site_label
 _atom_site_occupancy
 _atom_site_fract_x
 _atom_site_fract_y
 _atom_site_fract_z
 _atom_site_thermal_displace_type
 _atom_site_B_iso_or_equiv
 _atom_site_type_symbol
As1 1.0000000000 0.1404830336 0.0749585511 0.1006797467  Biso 1.0 As
As2 1.0000000000 0.3595169664 0.9250414489 0.6006797467  Biso 1.0 As
As3 1.0000000000 0.8595169664 0.5749585511 0.3993202533  Biso 1.0 As
As4 1.0000000000 0.6404830336 0.4250414489 0.8993202533  Biso 1.0 As
As5 1.0000000000 0.8595169664 0.9250414489 0.8993202533  Biso 1.0 As
As6 1.0000000000 0.6404830336 0.0749585511 0.3993202533  Biso 1.0 As
As7 1.0000000000 0.1404830336 0.4250414489 0.6006797467  Biso 1.0 As
As8 1.0000000000 0.3595169664 0.5749585511 0.1006797467  Biso 1.0 As
Zn9 1.0000000000 0.5346128167 0.6150361276 0.6361314716  Biso 1.0 Zn
Zn10 1.0000000000 0.9653871833 0.3849638724 0.1361314716  Biso 1.0 Zn
Zn11 1.0000000000 0.4653871833 0.1150361276 0.8638685284  Biso 1.0 Zn
Zn12 1.0000000000 0.0346128167 0.8849638724 0.3638685284  Biso 1.0 Zn
Zn13 1.0000000000 0.4653871833 0.3849638724 0.3638685284  Biso 1.0 Zn
Zn14 1.0000000000 0.0346128167 0.6150361276 0.8638685284  Biso 1.0 Zn
Zn15 1.0000000000 0.5346128167 0.8849638724 0.1361314716  Biso 1.0 Zn
Zn16 1.0000000000 0.9653871833 0.1150361276 0.6361314716  Biso 1.0 Zn
