# AFLOW.org Repositories
# As2Ba2Cd1   [ORCC,ORCC,oS20] (STD_PRIM d
data_As2Ba2Cd1
_pd_phase_name As2Ba2Cd1
_cell_length_a  9.1108484632
_cell_length_b  9.1108484632
_cell_length_c  8.2065544249
_cell_angle_alpha  90.0000000000
_cell_angle_beta  90.0000000000
_cell_angle_gamma  150.4427013094
_symmetry_space_group_name_H-M  'P1'
_symmetry_Int_Tables_Number  1
loop_
_symmetry_equiv_pos_site_id
_symmetry_equiv_pos_as_xyz
  1  x,y,z
loop_
 _atom_site_label
 _atom_site_occupancy
 _atom_site_fract_x
 _atom_site_fract_y
 _atom_site_fract_z
 _atom_site_thermal_displace_type
 _atom_site_B_iso_or_equiv
 _atom_site_type_symbol
As1 1.0000000000 0.9393467415 0.0606532585 0.0695651260  Biso 1.0 As
As2 1.0000000000 0.0606527271 0.9393472729 0.5695590221  Biso 1.0 As
As3 1.0000000000 0.6719079102 0.3280920898 0.0000000000  Biso 1.0 As
As4 1.0000000000 0.3280929314 0.6719070686 0.4997117450  Biso 1.0 As
Ba5 1.0000000000 0.7041287181 0.2958712819 0.6098805288  Biso 1.0 Ba
Ba6 1.0000000000 0.2958700028 0.7041299972 0.1098882362  Biso 1.0 Ba
Ba7 1.0000000000 0.5381601034 0.4618398966 0.2678037099  Biso 1.0 Ba
Ba8 1.0000000000 0.4618390243 0.5381609757 0.7678082486  Biso 1.0 Ba
Cd9 1.0000000000 0.9053952395 0.0946047605 0.4189842184  Biso 1.0 Cd
Cd10 1.0000000000 0.0946066016 0.9053933984 0.9189765521  Biso 1.0 Cd
