# AFLOW.org Repositories
# As2Zr1   [ORC,ORC,oP12] (STD_PRIM doi:10
data_As2Zr1
_pd_phase_name As2Zr1
_cell_length_a  3.7250712134
_cell_length_b  6.8596378926
_cell_length_c  9.1403478068
_cell_angle_alpha  90.0000000000
_cell_angle_beta  90.0000000000
_cell_angle_gamma  90.0000000000
_symmetry_space_group_name_H-M  'P1'
_symmetry_Int_Tables_Number  1
loop_
_symmetry_equiv_pos_site_id
_symmetry_equiv_pos_as_xyz
  1  x,y,z
loop_
 _atom_site_label
 _atom_site_occupancy
 _atom_site_fract_x
 _atom_site_fract_y
 _atom_site_fract_z
 _atom_site_thermal_displace_type
 _atom_site_B_iso_or_equiv
 _atom_site_type_symbol
As1 1.0000000000 0.2500000000 0.1202654710 0.9576133300  Biso 1.0 As
As2 1.0000000000 0.7500000000 0.3797345290 0.4576133300  Biso 1.0 As
As3 1.0000000000 0.7500000000 0.8797345290 0.0423866700  Biso 1.0 As
As4 1.0000000000 0.2500000000 0.6202654710 0.5423866700  Biso 1.0 As
As5 1.0000000000 0.2500000000 0.0831791639 0.3530874462  Biso 1.0 As
As6 1.0000000000 0.7500000000 0.4168208361 0.8530874462  Biso 1.0 As
As7 1.0000000000 0.7500000000 0.9168208361 0.6469125538  Biso 1.0 As
As8 1.0000000000 0.2500000000 0.5831791639 0.1469125538  Biso 1.0 As
Zr9 1.0000000000 0.2500000000 0.2272878283 0.6620140675  Biso 1.0 Zr
Zr10 1.0000000000 0.7500000000 0.2727121717 0.1620140675  Biso 1.0 Zr
Zr11 1.0000000000 0.7500000000 0.7727121717 0.3379859325  Biso 1.0 Zr
Zr12 1.0000000000 0.2500000000 0.7272878283 0.8379859325  Biso 1.0 Zr
