# AFLOW.org Repositories
# As3Rh1   [BCC,BCC,cI32] (STD_PRIM doi:10
data_As3Rh1
_pd_phase_name As3Rh1
_cell_length_a  7.4190151516
_cell_length_b  7.4190151516
_cell_length_c  7.4190151516
_cell_angle_alpha  109.4712206345
_cell_angle_beta  109.4712206345
_cell_angle_gamma  109.4712206345
_symmetry_space_group_name_H-M  'P1'
_symmetry_Int_Tables_Number  1
loop_
_symmetry_equiv_pos_site_id
_symmetry_equiv_pos_as_xyz
  1  x,y,z
loop_
 _atom_site_label
 _atom_site_occupancy
 _atom_site_fract_x
 _atom_site_fract_y
 _atom_site_fract_z
 _atom_site_thermal_displace_type
 _atom_site_B_iso_or_equiv
 _atom_site_type_symbol
As1 1.0000000000 0.8537428112 0.6509852941 0.5047281053  Biso 1.0 As
As2 1.0000000000 0.8537428112 0.3490147059 0.2027575171  Biso 1.0 As
As3 1.0000000000 0.1462571888 0.6509852941 0.7972424829  Biso 1.0 As
As4 1.0000000000 0.1462571888 0.3490147059 0.4952718947  Biso 1.0 As
As5 1.0000000000 0.7972424829 0.1462571888 0.6509852941  Biso 1.0 As
As6 1.0000000000 0.4952718947 0.1462571888 0.3490147059  Biso 1.0 As
As7 1.0000000000 0.5047281053 0.8537428112 0.6509852941  Biso 1.0 As
As8 1.0000000000 0.2027575171 0.8537428112 0.3490147059  Biso 1.0 As
As9 1.0000000000 0.3490147059 0.2027575171 0.8537428112  Biso 1.0 As
As10 1.0000000000 0.6509852941 0.5047281053 0.8537428112  Biso 1.0 As
As11 1.0000000000 0.3490147059 0.4952718947 0.1462571888  Biso 1.0 As
As12 1.0000000000 0.6509852941 0.7972424829 0.1462571888  Biso 1.0 As
Rh13 1.0000000000 0.0000000000 0.0000000000 0.5000000000  Biso 1.0 Rh
Rh14 1.0000000000 0.5000000000 0.0000000000 0.0000000000  Biso 1.0 Rh
Rh15 1.0000000000 0.0000000000 0.5000000000 0.0000000000  Biso 1.0 Rh
Rh16 1.0000000000 0.5000000000 0.5000000000 0.5000000000  Biso 1.0 Rh
