# AFLOW.org Repositories
# As4Mo5   [BCT,BCT1,tI18] (STD_PRIM doi:1
data_As4Mo5
_pd_phase_name As4Mo5
_cell_length_a  7.0575741001
_cell_length_b  7.0575741001
_cell_length_c  7.0575741001
_cell_angle_alpha  93.1571048705
_cell_angle_beta  93.1571048705
_cell_angle_gamma  152.8546562879
_symmetry_space_group_name_H-M  'P1'
_symmetry_Int_Tables_Number  1
loop_
_symmetry_equiv_pos_site_id
_symmetry_equiv_pos_as_xyz
  1  x,y,z
loop_
 _atom_site_label
 _atom_site_occupancy
 _atom_site_fract_x
 _atom_site_fract_y
 _atom_site_fract_z
 _atom_site_thermal_displace_type
 _atom_site_B_iso_or_equiv
 _atom_site_type_symbol
As1 1.0000000000 0.0573284790 0.7135362134 0.7708646923  Biso 1.0 As
As2 1.0000000000 0.9426715210 0.2864637866 0.2291353077  Biso 1.0 As
As3 1.0000000000 0.7135362134 0.9426715210 0.6562077344  Biso 1.0 As
As4 1.0000000000 0.2864637866 0.0573284790 0.3437922656  Biso 1.0 As
Mo5 1.0000000000 0.0000000000 0.0000000000 0.0000000000  Biso 1.0 Mo
Mo6 1.0000000000 0.2994854754 0.6206074418 0.9200929172  Biso 1.0 Mo
Mo7 1.0000000000 0.7005145246 0.3793925582 0.0799070828  Biso 1.0 Mo
Mo8 1.0000000000 0.6206074418 0.7005145246 0.3211219665  Biso 1.0 Mo
Mo9 1.0000000000 0.3793925582 0.2994854754 0.6788780335  Biso 1.0 Mo
