# AFLOW.org Repositories
# Au1Cd1La1   [HEX,HEX,hP9] (STD_PRIM doi:
data_Au1Cd1La1
_pd_phase_name Au1Cd1La1
_cell_length_a  8.0014013816
_cell_length_b  8.0014013816
_cell_length_c  4.2224463057
_cell_angle_alpha  90.0000000000
_cell_angle_beta  90.0000000000
_cell_angle_gamma  120.0000000000
_symmetry_space_group_name_H-M  'P1'
_symmetry_Int_Tables_Number  1
loop_
_symmetry_equiv_pos_site_id
_symmetry_equiv_pos_as_xyz
  1  x,y,z
loop_
 _atom_site_label
 _atom_site_occupancy
 _atom_site_fract_x
 _atom_site_fract_y
 _atom_site_fract_z
 _atom_site_thermal_displace_type
 _atom_site_B_iso_or_equiv
 _atom_site_type_symbol
Au1 1.0000000000 0.6666212536 0.3333097051 0.5000000000  Biso 1.0 Au
Au2 1.0000000000 0.3333787464 0.6666884515 0.5000000000  Biso 1.0 Au
Au3 1.0000000000 0.0000000000 0.0000000000 0.0000000000  Biso 1.0 Au
Cd4 1.0000000000 0.2492514846 0.2492514846 0.5000000000  Biso 1.0 Cd
Cd5 1.0000000000 0.7507445666 0.0000000000 0.5000000000  Biso 1.0 Cd
Cd6 1.0000000000 0.0000000000 0.7507415830 0.5000000000  Biso 1.0 Cd
La7 1.0000000000 0.5908679363 0.5908679363 0.0000000000  Biso 1.0 La
La8 1.0000000000 0.4091340355 0.0000000000 0.0000000000  Biso 1.0 La
La9 1.0000000000 0.0000000000 0.4091366590 0.0000000000  Biso 1.0 La
