# AFLOW.org Repositories
# Au1Dy1Sn1   [HEX,HEX,hP6] (STD_PRIM doi:
data_Au1Dy1Sn1
_pd_phase_name Au1Dy1Sn1
_cell_length_a  4.7232028978
_cell_length_b  4.7232028978
_cell_length_c  7.4633663624
_cell_angle_alpha  90.0000000000
_cell_angle_beta  90.0000000000
_cell_angle_gamma  120.0000000000
_symmetry_space_group_name_H-M  'P1'
_symmetry_Int_Tables_Number  1
loop_
_symmetry_equiv_pos_site_id
_symmetry_equiv_pos_as_xyz
  1  x,y,z
loop_
 _atom_site_label
 _atom_site_occupancy
 _atom_site_fract_x
 _atom_site_fract_y
 _atom_site_fract_z
 _atom_site_thermal_displace_type
 _atom_site_B_iso_or_equiv
 _atom_site_type_symbol
Au1 1.0000000000 0.6666661571 0.3333322917 0.0755730900  Biso 1.0 Au
Au2 1.0000000000 0.3333338835 0.6666677273 0.5755730971  Biso 1.0 Au
Dy3 1.0000000000 0.0000000000 0.0000000000 0.7489728463  Biso 1.0 Dy
Dy4 1.0000000000 0.0000000000 0.0000000000 0.2489726609  Biso 1.0 Dy
Sn5 1.0000000000 0.6666668093 0.3333336144 0.4739541540  Biso 1.0 Sn
Sn6 1.0000000000 0.3333332062 0.6666664052 0.9739541517  Biso 1.0 Sn
