# AFLOW.org Repositories
# Au1Er1Sn1   [HEX,HEX,hP6] (STD_PRIM doi:
data_Au1Er1Sn1
_pd_phase_name Au1Er1Sn1
_cell_length_a  4.7141809520
_cell_length_b  4.7141809520
_cell_length_c  7.4282595233
_cell_angle_alpha  90.0000000000
_cell_angle_beta  90.0000000000
_cell_angle_gamma  120.0000000000
_symmetry_space_group_name_H-M  'P1'
_symmetry_Int_Tables_Number  1
loop_
_symmetry_equiv_pos_site_id
_symmetry_equiv_pos_as_xyz
  1  x,y,z
loop_
 _atom_site_label
 _atom_site_occupancy
 _atom_site_fract_x
 _atom_site_fract_y
 _atom_site_fract_z
 _atom_site_thermal_displace_type
 _atom_site_B_iso_or_equiv
 _atom_site_type_symbol
Au1 1.0000000000 0.6666670316 0.3333335158 0.8123428839  Biso 1.0 Au
Au2 1.0000000000 0.3333329684 0.6666664842 0.3123428839  Biso 1.0 Au
Er3 1.0000000000 0.0000000000 0.0000000000 0.9797104810  Biso 1.0 Er
Er4 1.0000000000 0.0000000000 0.0000000000 0.4797104810  Biso 1.0 Er
Sn5 1.0000000000 0.6666764917 0.3333382458 0.2079466351  Biso 1.0 Sn
Sn6 1.0000000000 0.3333235083 0.6666617542 0.7079466351  Biso 1.0 Sn
