# AFLOW.org Repositories
# Au1Ga1O2   [HEX,HEX,hP8] (STD_PRIM doi:1
data_Au1Ga1O2
_pd_phase_name Au1Ga1O2
_cell_length_a  3.0363962415
_cell_length_b  3.0363962415
_cell_length_c  12.4496608702
_cell_angle_alpha  90.0000000000
_cell_angle_beta  90.0000000000
_cell_angle_gamma  120.0000000000
_symmetry_space_group_name_H-M  'P1'
_symmetry_Int_Tables_Number  1
loop_
_symmetry_equiv_pos_site_id
_symmetry_equiv_pos_as_xyz
  1  x,y,z
loop_
 _atom_site_label
 _atom_site_occupancy
 _atom_site_fract_x
 _atom_site_fract_y
 _atom_site_fract_z
 _atom_site_thermal_displace_type
 _atom_site_B_iso_or_equiv
 _atom_site_type_symbol
Au1 1.0000000000 0.6666984648 0.3333969296 0.2500000000  Biso 1.0 Au
Au2 1.0000000000 0.3333015352 0.6666030704 0.7500000000  Biso 1.0 Au
Ga3 1.0000000000 0.0000000000 0.0000000000 0.0000000000  Biso 1.0 Ga
Ga4 1.0000000000 0.0000000000 0.0000000000 0.5000000000  Biso 1.0 Ga
O5 1.0000000000 0.6666828028 0.3333656057 0.0800585699  Biso 1.0 O
O6 1.0000000000 0.3333171972 0.6666343943 0.5800585699  Biso 1.0 O
O7 1.0000000000 0.3333171972 0.6666343943 0.9199414301  Biso 1.0 O
O8 1.0000000000 0.6666828028 0.3333656057 0.4199414301  Biso 1.0 O
