# AFLOW.org Repositories
# Au1Ge4Rb3   [ORC,ORC,oP16] (STD_PRIM doi
data_Au1Ge4Rb3
_pd_phase_name Au1Ge4Rb3
_cell_length_a  6.2483822383
_cell_length_b  6.9494370835
_cell_length_c  12.5681863007
_cell_angle_alpha  90.0000000000
_cell_angle_beta  90.0000000000
_cell_angle_gamma  90.0000000000
_symmetry_space_group_name_H-M  'P1'
_symmetry_Int_Tables_Number  1
loop_
_symmetry_equiv_pos_site_id
_symmetry_equiv_pos_as_xyz
  1  x,y,z
loop_
 _atom_site_label
 _atom_site_occupancy
 _atom_site_fract_x
 _atom_site_fract_y
 _atom_site_fract_z
 _atom_site_thermal_displace_type
 _atom_site_B_iso_or_equiv
 _atom_site_type_symbol
Au1 1.0000000000 0.6928931460 0.2500000000 0.2500000000  Biso 1.0 Au
Au2 1.0000000000 0.3071068540 0.7500000000 0.7500000000  Biso 1.0 Au
Ge3 1.0000000000 0.9392100730 0.5512213022 0.7500000000  Biso 1.0 Ge
Ge4 1.0000000000 0.9392100730 0.9487786978 0.7500000000  Biso 1.0 Ge
Ge5 1.0000000000 0.0607899270 0.4487786978 0.2500000000  Biso 1.0 Ge
Ge6 1.0000000000 0.0607899270 0.0512213022 0.2500000000  Biso 1.0 Ge
Ge7 1.0000000000 0.3291335900 0.2500000000 0.3606822781  Biso 1.0 Ge
Ge8 1.0000000000 0.3291335900 0.2500000000 0.1393177219  Biso 1.0 Ge
Ge9 1.0000000000 0.6708664100 0.7500000000 0.8606822781  Biso 1.0 Ge
Ge10 1.0000000000 0.6708664100 0.7500000000 0.6393177219  Biso 1.0 Ge
Rb11 1.0000000000 0.8332074990 0.2500000000 0.9849306235  Biso 1.0 Rb
Rb12 1.0000000000 0.8332074990 0.2500000000 0.5150693765  Biso 1.0 Rb
Rb13 1.0000000000 0.1667925010 0.7500000000 0.4849306235  Biso 1.0 Rb
Rb14 1.0000000000 0.1667925010 0.7500000000 0.0150693765  Biso 1.0 Rb
Rb15 1.0000000000 0.4252348282 0.2500000000 0.7500000000  Biso 1.0 Rb
Rb16 1.0000000000 0.5747651718 0.7500000000 0.2500000000  Biso 1.0 Rb
