# AFLOW.org Repositories
# Au1Ho2   [ORC,ORC,oP12] (STD_PRIM doi:10
data_Au1Ho2
_pd_phase_name Au1Ho2
_cell_length_a  4.9553457752
_cell_length_b  7.0479300414
_cell_length_c  8.9012544629
_cell_angle_alpha  90.0000000000
_cell_angle_beta  90.0000000000
_cell_angle_gamma  90.0000000000
_symmetry_space_group_name_H-M  'P1'
_symmetry_Int_Tables_Number  1
loop_
_symmetry_equiv_pos_site_id
_symmetry_equiv_pos_as_xyz
  1  x,y,z
loop_
 _atom_site_label
 _atom_site_occupancy
 _atom_site_fract_x
 _atom_site_fract_y
 _atom_site_fract_z
 _atom_site_thermal_displace_type
 _atom_site_B_iso_or_equiv
 _atom_site_type_symbol
Au1 1.0000000000 0.2500000000 0.2601069682 0.8994893832  Biso 1.0 Au
Au2 1.0000000000 0.7500000000 0.2398930318 0.3994893832  Biso 1.0 Au
Au3 1.0000000000 0.7500000000 0.7398930318 0.1005106168  Biso 1.0 Au
Au4 1.0000000000 0.2500000000 0.7601069682 0.6005106168  Biso 1.0 Au
Ho5 1.0000000000 0.2500000000 0.8525294310 0.9191119924  Biso 1.0 Ho
Ho6 1.0000000000 0.7500000000 0.6474705690 0.4191119924  Biso 1.0 Ho
Ho7 1.0000000000 0.7500000000 0.1474705690 0.0808880076  Biso 1.0 Ho
Ho8 1.0000000000 0.2500000000 0.3525294310 0.5808880076  Biso 1.0 Ho
Ho9 1.0000000000 0.2500000000 0.4849117181 0.1769446517  Biso 1.0 Ho
Ho10 1.0000000000 0.7500000000 0.0150882819 0.6769446517  Biso 1.0 Ho
Ho11 1.0000000000 0.7500000000 0.5150882819 0.8230553483  Biso 1.0 Ho
Ho12 1.0000000000 0.2500000000 0.9849117181 0.3230553483  Biso 1.0 Ho
