# AFLOW.org Repositories
# Au1O2Y1   [HEX,HEX,hP8] (STD_PRIM doi:10
data_Au1O2Y1
_pd_phase_name Au1O2Y1
_cell_length_a  3.5860449349
_cell_length_b  3.5860449349
_cell_length_c  12.2475003979
_cell_angle_alpha  90.0000000000
_cell_angle_beta  90.0000000000
_cell_angle_gamma  120.0000000000
_symmetry_space_group_name_H-M  'P1'
_symmetry_Int_Tables_Number  1
loop_
_symmetry_equiv_pos_site_id
_symmetry_equiv_pos_as_xyz
  1  x,y,z
loop_
 _atom_site_label
 _atom_site_occupancy
 _atom_site_fract_x
 _atom_site_fract_y
 _atom_site_fract_z
 _atom_site_thermal_displace_type
 _atom_site_B_iso_or_equiv
 _atom_site_type_symbol
Au1 1.0000000000 0.6666973353 0.3333946705 0.2500000000  Biso 1.0 Au
Au2 1.0000000000 0.3333026647 0.6666053295 0.7500000000  Biso 1.0 Au
O3 1.0000000000 0.6666853234 0.3333706467 0.0827448816  Biso 1.0 O
O4 1.0000000000 0.3333146766 0.6666293533 0.5827448816  Biso 1.0 O
O5 1.0000000000 0.3333146766 0.6666293533 0.9172551184  Biso 1.0 O
O6 1.0000000000 0.6666853234 0.3333706467 0.4172551184  Biso 1.0 O
Y7 1.0000000000 0.0000000000 0.0000000000 0.0000000000  Biso 1.0 Y
Y8 1.0000000000 0.0000000000 0.0000000000 0.5000000000  Biso 1.0 Y
