# AFLOW.org Repositories
# Au1Sn1Y1   [HEX,HEX,hP6] (STD_PRIM doi:1
data_Au1Sn1Y1
_pd_phase_name Au1Sn1Y1
_cell_length_a  4.7337721388
_cell_length_b  4.7337721388
_cell_length_c  7.4607566073
_cell_angle_alpha  90.0000000000
_cell_angle_beta  90.0000000000
_cell_angle_gamma  120.0000000000
_symmetry_space_group_name_H-M  'P1'
_symmetry_Int_Tables_Number  1
loop_
_symmetry_equiv_pos_site_id
_symmetry_equiv_pos_as_xyz
  1  x,y,z
loop_
 _atom_site_label
 _atom_site_occupancy
 _atom_site_fract_x
 _atom_site_fract_y
 _atom_site_fract_z
 _atom_site_thermal_displace_type
 _atom_site_B_iso_or_equiv
 _atom_site_type_symbol
Au1 1.0000000000 0.6666499585 0.3333500415 0.0725089195  Biso 1.0 Au
Au2 1.0000000000 0.3333500415 0.6666499585 0.5725089195  Biso 1.0 Au
Sn3 1.0000000000 0.6666405733 0.3333594267 0.4726075473  Biso 1.0 Sn
Sn4 1.0000000000 0.3333594267 0.6666405733 0.9726075473  Biso 1.0 Sn
Y5 1.0000000000 0.0000000000 0.0000000000 0.2471735332  Biso 1.0 Y
Y6 1.0000000000 0.0000000000 0.0000000000 0.7471735332  Biso 1.0 Y
