# AFLOW.org Repositories
# Au2Cl6Cs2   [CUB,CUB,cP40] (STD_CONV doi
data_Au2Cl6Cs2
_pd_phase_name Au2Cl6Cs2
_cell_length_a  5.2059130844
_cell_length_b  5.2059130844
_cell_length_c  5.2059130844
_cell_angle_alpha  90.0000000000
_cell_angle_beta  90.0000000000
_cell_angle_gamma  90.0000000000
_symmetry_space_group_name_H-M  'P1'
_symmetry_Int_Tables_Number  1
loop_
_symmetry_equiv_pos_site_id
_symmetry_equiv_pos_as_xyz
  1  x,y,z
loop_
 _atom_site_label
 _atom_site_occupancy
 _atom_site_fract_x
 _atom_site_fract_y
 _atom_site_fract_z
 _atom_site_thermal_displace_type
 _atom_site_B_iso_or_equiv
 _atom_site_type_symbol
Au1 1.0000000000 0.0000000000 0.0000000000 0.0000000000  Biso 1.0 Au
Cl2 1.0000000000 0.0000000000 0.0000000000 0.5002161984  Biso 1.0 Cl
Cl3 1.0000000000 0.5004325837 0.0000000000 0.0000000000  Biso 1.0 Cl
Cl4 1.0000000000 0.0000000000 0.4996757141 0.0000000000  Biso 1.0 Cl
Cs5 1.0000000000 0.5005406478 0.4997837549 0.5002162451  Biso 1.0 Cs
