# AFLOW.org Repositories
# Au2Ca2Pb1   [TET,TET,tP10] (STD_PRIM doi
data_Au2Ca2Pb1
_pd_phase_name Au2Ca2Pb1
_cell_length_a  8.1477968471
_cell_length_b  8.1477968471
_cell_length_c  3.8724431079
_cell_angle_alpha  90.0000000000
_cell_angle_beta  90.0000000000
_cell_angle_gamma  90.0000000000
_symmetry_space_group_name_H-M  'P1'
_symmetry_Int_Tables_Number  1
loop_
_symmetry_equiv_pos_site_id
_symmetry_equiv_pos_as_xyz
  1  x,y,z
loop_
 _atom_site_label
 _atom_site_occupancy
 _atom_site_fract_x
 _atom_site_fract_y
 _atom_site_fract_z
 _atom_site_thermal_displace_type
 _atom_site_B_iso_or_equiv
 _atom_site_type_symbol
Au1 1.0000000000 0.6233191274 0.1233191274 0.0000000000  Biso 1.0 Au
Au2 1.0000000000 0.3766808726 0.8766808726 0.0000000000  Biso 1.0 Au
Au3 1.0000000000 0.8766808726 0.6233191274 0.0000000000  Biso 1.0 Au
Au4 1.0000000000 0.1233191274 0.3766808726 0.0000000000  Biso 1.0 Au
Ca5 1.0000000000 0.1735218927 0.6735218927 0.5000000000  Biso 1.0 Ca
Ca6 1.0000000000 0.8264781073 0.3264781073 0.5000000000  Biso 1.0 Ca
Ca7 1.0000000000 0.3264781073 0.1735218927 0.5000000000  Biso 1.0 Ca
Ca8 1.0000000000 0.6735218927 0.8264781073 0.5000000000  Biso 1.0 Ca
Pb9 1.0000000000 0.0000000000 0.0000000000 0.0000000000  Biso 1.0 Pb
Pb10 1.0000000000 0.5000000000 0.5000000000 0.0000000000  Biso 1.0 Pb
