# AFLOW.org Repositories
# Au2Dy1Si2   [BCT,BCT2,tI10] (STD_PRIM do
data_Au2Dy1Si2
_pd_phase_name Au2Dy1Si2
_cell_length_a  5.9548422998
_cell_length_b  5.9548422998
_cell_length_c  5.9548422998
_cell_angle_alpha  138.3322299560
_cell_angle_beta  138.3322299560
_cell_angle_gamma  60.3945522136
_symmetry_space_group_name_H-M  'P1'
_symmetry_Int_Tables_Number  1
loop_
_symmetry_equiv_pos_site_id
_symmetry_equiv_pos_as_xyz
  1  x,y,z
loop_
 _atom_site_label
 _atom_site_occupancy
 _atom_site_fract_x
 _atom_site_fract_y
 _atom_site_fract_z
 _atom_site_thermal_displace_type
 _atom_site_B_iso_or_equiv
 _atom_site_type_symbol
Au1 1.0000000000 0.2500000000 0.7500000000 0.5000000000  Biso 1.0 Au
Au2 1.0000000000 0.7500000000 0.2500000000 0.5000000000  Biso 1.0 Au
Dy3 1.0000000000 0.0000000000 0.0000000000 0.0000000000  Biso 1.0 Dy
Si4 1.0000000000 0.3887512703 0.3887512703 0.0000000000  Biso 1.0 Si
Si5 1.0000000000 0.6112487297 0.6112487297 0.0000000000  Biso 1.0 Si
