# AFLOW.org Repositories
# Au2Ho5Sb1   [BCT,BCT2,tI32] (STD_PRIM do
data_Au2Ho5Sb1
_pd_phase_name Au2Ho5Sb1
_cell_length_a  8.6226353285
_cell_length_b  8.6226353285
_cell_length_c  8.6226353285
_cell_angle_alpha  124.5713096416
_cell_angle_beta  124.5713096416
_cell_angle_gamma  82.2493025923
_symmetry_space_group_name_H-M  'P1'
_symmetry_Int_Tables_Number  1
loop_
_symmetry_equiv_pos_site_id
_symmetry_equiv_pos_as_xyz
  1  x,y,z
loop_
 _atom_site_label
 _atom_site_occupancy
 _atom_site_fract_x
 _atom_site_fract_y
 _atom_site_fract_z
 _atom_site_thermal_displace_type
 _atom_site_B_iso_or_equiv
 _atom_site_type_symbol
Au1 1.0000000000 0.3623931194 0.8623931194 0.2247862389  Biso 1.0 Au
Au2 1.0000000000 0.6376068806 0.1376068806 0.7752137611  Biso 1.0 Au
Au3 1.0000000000 0.1376068806 0.3623931194 0.5000000000  Biso 1.0 Au
Au4 1.0000000000 0.8623931194 0.6376068806 0.5000000000  Biso 1.0 Au
Ho5 1.0000000000 0.0000000000 0.0000000000 0.0000000000  Biso 1.0 Ho
Ho6 1.0000000000 0.5000000000 0.5000000000 0.0000000000  Biso 1.0 Ho
Ho7 1.0000000000 0.7005589457 0.2005589457 0.1912761735  Biso 1.0 Ho
Ho8 1.0000000000 0.0092827722 0.5092827722 0.8087238265  Biso 1.0 Ho
Ho9 1.0000000000 0.5092827722 0.7005589457 0.5000000000  Biso 1.0 Ho
Ho10 1.0000000000 0.2005589457 0.0092827722 0.5000000000  Biso 1.0 Ho
Ho11 1.0000000000 0.7994410543 0.9907172278 0.5000000000  Biso 1.0 Ho
Ho12 1.0000000000 0.4907172278 0.2994410543 0.5000000000  Biso 1.0 Ho
Ho13 1.0000000000 0.9907172278 0.4907172278 0.1912761735  Biso 1.0 Ho
Ho14 1.0000000000 0.2994410543 0.7994410543 0.8087238265  Biso 1.0 Ho
Sb15 1.0000000000 0.7500000000 0.7500000000 0.0000000000  Biso 1.0 Sb
Sb16 1.0000000000 0.2500000000 0.2500000000 0.0000000000  Biso 1.0 Sb
