# AFLOW.org Repositories
# Au2Nb3   [BCT,BCT2,tI10] (STD_PRIM doi:1
data_Au2Nb3
_pd_phase_name Au2Nb3
_cell_length_a  8.0634862979
_cell_length_b  8.0634862979
_cell_length_c  8.0634862979
_cell_angle_alpha  155.4415875029
_cell_angle_beta  155.4415875029
_cell_angle_gamma  35.0075910573
_symmetry_space_group_name_H-M  'P1'
_symmetry_Int_Tables_Number  1
loop_
_symmetry_equiv_pos_site_id
_symmetry_equiv_pos_as_xyz
  1  x,y,z
loop_
 _atom_site_label
 _atom_site_occupancy
 _atom_site_fract_x
 _atom_site_fract_y
 _atom_site_fract_z
 _atom_site_thermal_displace_type
 _atom_site_B_iso_or_equiv
 _atom_site_type_symbol
Au1 1.0000000000 0.7999524488 0.7999524488 0.0000000000  Biso 1.0 Au
Au2 1.0000000000 0.2000475512 0.2000475512 0.0000000000  Biso 1.0 Au
Nb3 1.0000000000 0.0000000000 0.0000000000 0.0000000000  Biso 1.0 Nb
Nb4 1.0000000000 0.5999692213 0.5999692213 0.0000000000  Biso 1.0 Nb
Nb5 1.0000000000 0.4000307787 0.4000307787 0.0000000000  Biso 1.0 Nb
