# AFLOW.org Repositories
# Au2P3   [MCLC,MCLC3,mS20] (STD_PRIM doi:
data_Au2P3
_pd_phase_name Au2P3
_cell_length_a  7.8867957634
_cell_length_b  7.8867957634
_cell_length_c  4.7500969510
_cell_angle_alpha  83.4276188754
_cell_angle_beta  83.4276188754
_cell_angle_gamma  135.7106288545
_symmetry_space_group_name_H-M  'P1'
_symmetry_Int_Tables_Number  1
loop_
_symmetry_equiv_pos_site_id
_symmetry_equiv_pos_as_xyz
  1  x,y,z
loop_
 _atom_site_label
 _atom_site_occupancy
 _atom_site_fract_x
 _atom_site_fract_y
 _atom_site_fract_z
 _atom_site_thermal_displace_type
 _atom_site_B_iso_or_equiv
 _atom_site_type_symbol
Au1 1.0000000000 0.0000000000 0.5000000000 0.5000000000  Biso 1.0 Au
Au2 1.0000000000 0.5000000000 0.0000000000 0.5000000000  Biso 1.0 Au
Au3 1.0000000000 0.1079505845 0.8920494155 0.0000000000  Biso 1.0 Au
Au4 1.0000000000 0.8920494155 0.1079505845 0.0000000000  Biso 1.0 Au
P5 1.0000000000 0.2088194145 0.4511658803 0.1793314092  Biso 1.0 P
P6 1.0000000000 0.5488341197 0.7911805855 0.8206685908  Biso 1.0 P
P7 1.0000000000 0.7911805855 0.5488341197 0.8206685908  Biso 1.0 P
P8 1.0000000000 0.4511658803 0.2088194145 0.1793314092  Biso 1.0 P
P9 1.0000000000 0.3183027747 0.3183027747 0.4685827271  Biso 1.0 P
P10 1.0000000000 0.6816972253 0.6816972253 0.5314172729  Biso 1.0 P
