# AFLOW.org Repositories
# Au3Na1Si1   [CUB,CUB,cP40] (STD_PRIM doi
data_Au3Na1Si1
_pd_phase_name Au3Na1Si1
_cell_length_a  9.0829271142
_cell_length_b  9.0829271142
_cell_length_c  9.0829271142
_cell_angle_alpha  90.0000000000
_cell_angle_beta  90.0000000000
_cell_angle_gamma  90.0000000000
_symmetry_space_group_name_H-M  'P1'
_symmetry_Int_Tables_Number  1
loop_
_symmetry_equiv_pos_site_id
_symmetry_equiv_pos_as_xyz
  1  x,y,z
loop_
 _atom_site_label
 _atom_site_occupancy
 _atom_site_fract_x
 _atom_site_fract_y
 _atom_site_fract_z
 _atom_site_thermal_displace_type
 _atom_site_B_iso_or_equiv
 _atom_site_type_symbol
Au1 1.0000000000 0.7722964330 0.8731329318 0.4027406067  Biso 1.0 Au
Au2 1.0000000000 0.7277035670 0.1268670682 0.9027406067  Biso 1.0 Au
Au3 1.0000000000 0.2277035670 0.3731329318 0.0972593933  Biso 1.0 Au
Au4 1.0000000000 0.2722964330 0.6268670682 0.5972593933  Biso 1.0 Au
Au5 1.0000000000 0.5972593933 0.7722964330 0.1268670682  Biso 1.0 Au
Au6 1.0000000000 0.0972593933 0.7277035670 0.8731329318  Biso 1.0 Au
Au7 1.0000000000 0.9027406067 0.2277035670 0.6268670682  Biso 1.0 Au
Au8 1.0000000000 0.4027406067 0.2722964330 0.3731329318  Biso 1.0 Au
Au9 1.0000000000 0.8731329318 0.5972593933 0.2277035670  Biso 1.0 Au
Au10 1.0000000000 0.1268670682 0.0972593933 0.2722964330  Biso 1.0 Au
Au11 1.0000000000 0.3731329318 0.9027406067 0.7722964330  Biso 1.0 Au
Au12 1.0000000000 0.6268670682 0.4027406067 0.7277035670  Biso 1.0 Au
Au13 1.0000000000 0.2277035670 0.1268670682 0.5972593933  Biso 1.0 Au
Au14 1.0000000000 0.2722964330 0.8731329318 0.0972593933  Biso 1.0 Au
Au15 1.0000000000 0.7722964330 0.6268670682 0.9027406067  Biso 1.0 Au
Au16 1.0000000000 0.7277035670 0.3731329318 0.4027406067  Biso 1.0 Au
Au17 1.0000000000 0.4027406067 0.2277035670 0.8731329318  Biso 1.0 Au
Au18 1.0000000000 0.9027406067 0.2722964330 0.1268670682  Biso 1.0 Au
Au19 1.0000000000 0.0972593933 0.7722964330 0.3731329318  Biso 1.0 Au
Au20 1.0000000000 0.5972593933 0.7277035670 0.6268670682  Biso 1.0 Au
Au21 1.0000000000 0.1268670682 0.4027406067 0.7722964330  Biso 1.0 Au
Au22 1.0000000000 0.8731329318 0.9027406067 0.7277035670  Biso 1.0 Au
Au23 1.0000000000 0.6268670682 0.0972593933 0.2277035670  Biso 1.0 Au
Au24 1.0000000000 0.3731329318 0.5972593933 0.2722964330  Biso 1.0 Au
Na25 1.0000000000 0.9021710327 0.9021710327 0.0978289673  Biso 1.0 Na
Na26 1.0000000000 0.5978289673 0.0978289673 0.5978289673  Biso 1.0 Na
Na27 1.0000000000 0.0978289673 0.4021710327 0.4021710327  Biso 1.0 Na
Na28 1.0000000000 0.4021710327 0.5978289673 0.9021710327  Biso 1.0 Na
Na29 1.0000000000 0.0978289673 0.0978289673 0.9021710327  Biso 1.0 Na
Na30 1.0000000000 0.4021710327 0.9021710327 0.4021710327  Biso 1.0 Na
Na31 1.0000000000 0.9021710327 0.5978289673 0.5978289673  Biso 1.0 Na
Na32 1.0000000000 0.5978289673 0.4021710327 0.0978289673  Biso 1.0 Na
Si33 1.0000000000 0.6254750360 0.6254750360 0.3745249640  Biso 1.0 Si
Si34 1.0000000000 0.8745249640 0.3745249640 0.8745249640  Biso 1.0 Si
Si35 1.0000000000 0.3745249640 0.1254750360 0.1254750360  Biso 1.0 Si
Si36 1.0000000000 0.1254750360 0.8745249640 0.6254750360  Biso 1.0 Si
Si37 1.0000000000 0.3745249640 0.3745249640 0.6254750360  Biso 1.0 Si
Si38 1.0000000000 0.1254750360 0.6254750360 0.1254750360  Biso 1.0 Si
Si39 1.0000000000 0.6254750360 0.8745249640 0.8745249640  Biso 1.0 Si
Si40 1.0000000000 0.8745249640 0.1254750360 0.3745249640  Biso 1.0 Si
