# AFLOW.org Repositories
# B2C2Dy1   [TET,TET,tP10] (STD_PRIM doi:1
data_B2C2Dy1
_pd_phase_name B2C2Dy1
_cell_length_a  5.3499772016
_cell_length_b  5.3499772016
_cell_length_c  3.5738135714
_cell_angle_alpha  90.0000000000
_cell_angle_beta  90.0000000000
_cell_angle_gamma  90.0000000000
_symmetry_space_group_name_H-M  'P1'
_symmetry_Int_Tables_Number  1
loop_
_symmetry_equiv_pos_site_id
_symmetry_equiv_pos_as_xyz
  1  x,y,z
loop_
 _atom_site_label
 _atom_site_occupancy
 _atom_site_fract_x
 _atom_site_fract_y
 _atom_site_fract_z
 _atom_site_thermal_displace_type
 _atom_site_B_iso_or_equiv
 _atom_site_type_symbol
B1 1.0000000000 0.3632773005 0.8632773005 0.5000000000  Biso 1.0 B
B2 1.0000000000 0.6367226995 0.1367226995 0.5000000000  Biso 1.0 B
B3 1.0000000000 0.1367226995 0.3632773005 0.5000000000  Biso 1.0 B
B4 1.0000000000 0.8632773005 0.6367226995 0.5000000000  Biso 1.0 B
C5 1.0000000000 0.1617061819 0.6617061819 0.5000000000  Biso 1.0 C
C6 1.0000000000 0.8382938181 0.3382938181 0.5000000000  Biso 1.0 C
C7 1.0000000000 0.3382938181 0.1617061819 0.5000000000  Biso 1.0 C
C8 1.0000000000 0.6617061819 0.8382938181 0.5000000000  Biso 1.0 C
Dy9 1.0000000000 0.0000000000 0.0000000000 0.0000000000  Biso 1.0 Dy
Dy10 1.0000000000 0.5000000000 0.5000000000 0.0000000000  Biso 1.0 Dy
