# AFLOW.org Repositories
# B2Mo2Os1   [ORC,ORC,oP20] (STD_PRIM doi:
data_B2Mo2Os1
_pd_phase_name B2Mo2Os1
_cell_length_a  3.0872765101
_cell_length_b  7.6106597990
_cell_length_c  9.6660101178
_cell_angle_alpha  90.0000000000
_cell_angle_beta  90.0000000000
_cell_angle_gamma  90.0000000000
_symmetry_space_group_name_H-M  'P1'
_symmetry_Int_Tables_Number  1
loop_
_symmetry_equiv_pos_site_id
_symmetry_equiv_pos_as_xyz
  1  x,y,z
loop_
 _atom_site_label
 _atom_site_occupancy
 _atom_site_fract_x
 _atom_site_fract_y
 _atom_site_fract_z
 _atom_site_thermal_displace_type
 _atom_site_B_iso_or_equiv
 _atom_site_type_symbol
B1 1.0000000000 0.0000000000 0.3854927338 0.0401922313  Biso 1.0 B
B2 1.0000000000 0.0000000000 0.6145072662 0.9598077687  Biso 1.0 B
B3 1.0000000000 0.5000000000 0.8854927338 0.4598077687  Biso 1.0 B
B4 1.0000000000 0.5000000000 0.1145072662 0.5401922313  Biso 1.0 B
B5 1.0000000000 0.0000000000 0.3774401067 0.2332785870  Biso 1.0 B
B6 1.0000000000 0.0000000000 0.6225598933 0.7667214130  Biso 1.0 B
B7 1.0000000000 0.5000000000 0.8774401067 0.2667214130  Biso 1.0 B
B8 1.0000000000 0.5000000000 0.1225598933 0.7332785870  Biso 1.0 B
Mo9 1.0000000000 0.0000000000 0.6913125698 0.3691339074  Biso 1.0 Mo
Mo10 1.0000000000 0.0000000000 0.3086874302 0.6308660926  Biso 1.0 Mo
Mo11 1.0000000000 0.5000000000 0.1913125698 0.1308660926  Biso 1.0 Mo
Mo12 1.0000000000 0.5000000000 0.8086874302 0.8691339074  Biso 1.0 Mo
Mo13 1.0000000000 0.0000000000 0.9238145336 0.6390991684  Biso 1.0 Mo
Mo14 1.0000000000 0.0000000000 0.0761854664 0.3609008316  Biso 1.0 Mo
Mo15 1.0000000000 0.5000000000 0.4238145336 0.8609008316  Biso 1.0 Mo
Mo16 1.0000000000 0.5000000000 0.5761854664 0.1390991684  Biso 1.0 Mo
Os17 1.0000000000 0.0000000000 0.8815622779 0.1071101459  Biso 1.0 Os
Os18 1.0000000000 0.0000000000 0.1184377221 0.8928898541  Biso 1.0 Os
Os19 1.0000000000 0.5000000000 0.3815622779 0.3928898541  Biso 1.0 Os
Os20 1.0000000000 0.5000000000 0.6184377221 0.6071101459  Biso 1.0 Os
