# AFLOW.org Repositories
# B2Nb3   [TET,TET,tP10] (STD_PRIM doi:10.
data_B2Nb3
_pd_phase_name B2Nb3
_cell_length_a  6.2466538008
_cell_length_b  6.2466538008
_cell_length_c  3.3257242430
_cell_angle_alpha  90.0000000000
_cell_angle_beta  90.0000000000
_cell_angle_gamma  90.0000000000
_symmetry_space_group_name_H-M  'P1'
_symmetry_Int_Tables_Number  1
loop_
_symmetry_equiv_pos_site_id
_symmetry_equiv_pos_as_xyz
  1  x,y,z
loop_
 _atom_site_label
 _atom_site_occupancy
 _atom_site_fract_x
 _atom_site_fract_y
 _atom_site_fract_z
 _atom_site_thermal_displace_type
 _atom_site_B_iso_or_equiv
 _atom_site_type_symbol
B1 1.0000000000 0.3946677263 0.8946677263 0.0000000000  Biso 1.0 B
B2 1.0000000000 0.6053322737 0.1053322737 0.0000000000  Biso 1.0 B
B3 1.0000000000 0.1053322737 0.3946677263 0.0000000000  Biso 1.0 B
B4 1.0000000000 0.8946677263 0.6053322737 0.0000000000  Biso 1.0 B
Nb5 1.0000000000 0.1778849285 0.6778849285 0.5000000000  Biso 1.0 Nb
Nb6 1.0000000000 0.8221150715 0.3221150715 0.5000000000  Biso 1.0 Nb
Nb7 1.0000000000 0.3221150715 0.1778849285 0.5000000000  Biso 1.0 Nb
Nb8 1.0000000000 0.6778849285 0.8221150715 0.5000000000  Biso 1.0 Nb
Nb9 1.0000000000 0.0000000000 0.0000000000 0.0000000000  Biso 1.0 Nb
Nb10 1.0000000000 0.5000000000 0.5000000000 0.0000000000  Biso 1.0 Nb
