# AFLOW.org Repositories
# B2Pd5   [MCLC,MCLC1,mS28] (STD_PRIM doi:
data_B2Pd5
_pd_phase_name B2Pd5
_cell_length_a  6.9563587911
_cell_length_b  6.9563587911
_cell_length_c  5.5099588051
_cell_angle_alpha  83.4720196794
_cell_angle_beta  83.4720196794
_cell_angle_gamma  41.8468307184
_symmetry_space_group_name_H-M  'P1'
_symmetry_Int_Tables_Number  1
loop_
_symmetry_equiv_pos_site_id
_symmetry_equiv_pos_as_xyz
  1  x,y,z
loop_
 _atom_site_label
 _atom_site_occupancy
 _atom_site_fract_x
 _atom_site_fract_y
 _atom_site_fract_z
 _atom_site_thermal_displace_type
 _atom_site_B_iso_or_equiv
 _atom_site_type_symbol
B1 1.0000000000 0.1857127768 0.5851723669 0.0783900201  Biso 1.0 B
B2 1.0000000000 0.4148276331 0.8142872232 0.4216099799  Biso 1.0 B
B3 1.0000000000 0.8142872232 0.4148276331 0.9216099799  Biso 1.0 B
B4 1.0000000000 0.5851723669 0.1857127768 0.5783900201  Biso 1.0 B
Pd5 1.0000000000 0.9916811006 0.8154025853 0.4188225464  Biso 1.0 Pd
Pd6 1.0000000000 0.1845974147 0.0083188994 0.0811774536  Biso 1.0 Pd
Pd7 1.0000000000 0.0083188994 0.1845974147 0.5811774536  Biso 1.0 Pd
Pd8 1.0000000000 0.8154025853 0.9916811006 0.9188225464  Biso 1.0 Pd
Pd9 1.0000000000 0.3589491104 0.2187800410 0.3159060367  Biso 1.0 Pd
Pd10 1.0000000000 0.7812199590 0.6410508896 0.1840939633  Biso 1.0 Pd
Pd11 1.0000000000 0.6410508896 0.7812199590 0.6840939633  Biso 1.0 Pd
Pd12 1.0000000000 0.2187800410 0.3589491104 0.8159060367  Biso 1.0 Pd
Pd13 1.0000000000 0.5667797025 0.4332202975 0.2500000000  Biso 1.0 Pd
Pd14 1.0000000000 0.4332202975 0.5667797025 0.7500000000  Biso 1.0 Pd
