# AFLOW.org Repositories
# B4Hf1Ir3   [HEX,HEX,hP16] (STD_PRIM doi:
data_B4Hf1Ir3
_pd_phase_name B4Hf1Ir3
_cell_length_a  7.6157763886
_cell_length_b  7.6157763886
_cell_length_c  3.4727583950
_cell_angle_alpha  90.0000000000
_cell_angle_beta  90.0000000000
_cell_angle_gamma  120.0000000000
_symmetry_space_group_name_H-M  'P1'
_symmetry_Int_Tables_Number  1
loop_
_symmetry_equiv_pos_site_id
_symmetry_equiv_pos_as_xyz
  1  x,y,z
loop_
 _atom_site_label
 _atom_site_occupancy
 _atom_site_fract_x
 _atom_site_fract_y
 _atom_site_fract_z
 _atom_site_thermal_displace_type
 _atom_site_B_iso_or_equiv
 _atom_site_type_symbol
B1 1.0000000000 0.3964427186 0.4484459850 0.2500000000  Biso 1.0 B
B2 1.0000000000 0.5515564347 0.9479959632 0.2500000000  Biso 1.0 B
B3 1.0000000000 0.0520043476 0.6035603894 0.2500000000  Biso 1.0 B
B4 1.0000000000 0.6035572814 0.5515540150 0.7500000000  Biso 1.0 B
B5 1.0000000000 0.4484435653 0.0520040368 0.7500000000  Biso 1.0 B
B6 1.0000000000 0.9479956524 0.3964396106 0.7500000000  Biso 1.0 B
B7 1.0000000000 0.0000000000 0.0000000000 0.0000000000  Biso 1.0 B
B8 1.0000000000 0.0000000000 0.0000000000 0.5000000000  Biso 1.0 B
Hf9 1.0000000000 0.3333362616 0.6666700163 0.7500000000  Biso 1.0 Hf
Hf10 1.0000000000 0.6666637384 0.3333299837 0.2500000000  Biso 1.0 Hf
Ir11 1.0000000000 0.0761180981 0.3344453602 0.2500000000  Biso 1.0 Ir
Ir12 1.0000000000 0.6655613295 0.7416767411 0.2500000000  Biso 1.0 Ir
Ir13 1.0000000000 0.2583253501 0.9238855758 0.2500000000  Biso 1.0 Ir
Ir14 1.0000000000 0.9238819019 0.6655546398 0.7500000000  Biso 1.0 Ir
Ir15 1.0000000000 0.3344386705 0.2583232589 0.7500000000  Biso 1.0 Ir
Ir16 1.0000000000 0.7416746499 0.0761144242 0.7500000000  Biso 1.0 Ir
