# AFLOW.org Repositories
# B6Ta5   [ORCC,ORCC,oS22] (STD_PRIM doi:1
data_B6Ta5
_pd_phase_name B6Ta5
_cell_length_a  11.5537125074
_cell_length_b  11.5537125074
_cell_length_c  3.3297779978
_cell_angle_alpha  90.0000000000
_cell_angle_beta  90.0000000000
_cell_angle_gamma  164.2280075613
_symmetry_space_group_name_H-M  'P1'
_symmetry_Int_Tables_Number  1
loop_
_symmetry_equiv_pos_site_id
_symmetry_equiv_pos_as_xyz
  1  x,y,z
loop_
 _atom_site_label
 _atom_site_occupancy
 _atom_site_fract_x
 _atom_site_fract_y
 _atom_site_fract_z
 _atom_site_thermal_displace_type
 _atom_site_B_iso_or_equiv
 _atom_site_type_symbol
B1 1.0000000000 0.0819553860 0.9180446140 0.5000000000  Biso 1.0 B
B2 1.0000000000 0.9180446140 0.0819553860 0.5000000000  Biso 1.0 B
B3 1.0000000000 0.2729654912 0.7270345088 0.0000000000  Biso 1.0 B
B4 1.0000000000 0.7270345088 0.2729654912 0.0000000000  Biso 1.0 B
B5 1.0000000000 0.4605728571 0.5394271429 0.5000000000  Biso 1.0 B
B6 1.0000000000 0.5394271429 0.4605728571 0.5000000000  Biso 1.0 B
Ta7 1.0000000000 0.0000000000 0.0000000000 0.0000000000  Biso 1.0 Ta
Ta8 1.0000000000 0.3857606813 0.6142393187 0.0000000000  Biso 1.0 Ta
Ta9 1.0000000000 0.6142393187 0.3857606813 0.0000000000  Biso 1.0 Ta
Ta10 1.0000000000 0.1942301053 0.8057698947 0.5000000000  Biso 1.0 Ta
Ta11 1.0000000000 0.8057698947 0.1942301053 0.5000000000  Biso 1.0 Ta
