# AFLOW.org Repositories
# Ba1Li1Sb1   [HEX,HEX,hP6] (STD_PRIM doi:
data_Ba1Li1Sb1
_pd_phase_name Ba1Li1Sb1
_cell_length_a  4.9455948802
_cell_length_b  4.9455948802
_cell_length_c  9.1959418808
_cell_angle_alpha  90.0000000000
_cell_angle_beta  90.0000000000
_cell_angle_gamma  120.0000000000
_symmetry_space_group_name_H-M  'P1'
_symmetry_Int_Tables_Number  1
loop_
_symmetry_equiv_pos_site_id
_symmetry_equiv_pos_as_xyz
  1  x,y,z
loop_
 _atom_site_label
 _atom_site_occupancy
 _atom_site_fract_x
 _atom_site_fract_y
 _atom_site_fract_z
 _atom_site_thermal_displace_type
 _atom_site_B_iso_or_equiv
 _atom_site_type_symbol
Ba1 1.0000000000 0.0000000000 0.0000000000 0.0000000000  Biso 1.0 Ba
Ba2 1.0000000000 0.0000000000 0.0000000000 0.5000000000  Biso 1.0 Ba
Li3 1.0000000000 0.3333573956 0.6666786978 0.2500000000  Biso 1.0 Li
Li4 1.0000000000 0.6666426044 0.3333213022 0.7500000000  Biso 1.0 Li
Sb5 1.0000000000 0.6666584320 0.3333292160 0.2500000000  Biso 1.0 Sb
Sb6 1.0000000000 0.3333415680 0.6666707840 0.7500000000  Biso 1.0 Sb
