# AFLOW.org Repositories
# Ba1Na1P1   [HEX,HEX,hP9] (STD_PRIM doi:1
data_Ba1Na1P1
_pd_phase_name Ba1Na1P1
_cell_length_a  7.9932211717
_cell_length_b  7.9932211717
_cell_length_c  4.6908068756
_cell_angle_alpha  90.0000000000
_cell_angle_beta  90.0000000000
_cell_angle_gamma  120.0000000000
_symmetry_space_group_name_H-M  'P1'
_symmetry_Int_Tables_Number  1
loop_
_symmetry_equiv_pos_site_id
_symmetry_equiv_pos_as_xyz
  1  x,y,z
loop_
 _atom_site_label
 _atom_site_occupancy
 _atom_site_fract_x
 _atom_site_fract_y
 _atom_site_fract_z
 _atom_site_thermal_displace_type
 _atom_site_B_iso_or_equiv
 _atom_site_type_symbol
Ba1 1.0000000000 0.0000000000 0.4133981594 0.5000000000  Biso 1.0 Ba
Ba2 1.0000000000 0.5866018406 0.5866018406 0.5000000000  Biso 1.0 Ba
Ba3 1.0000000000 0.4133991098 0.0000000000 0.5000000000  Biso 1.0 Ba
Na4 1.0000000000 0.0000000000 0.7596175981 0.0000000000  Biso 1.0 Na
Na5 1.0000000000 0.2403824019 0.2403824019 0.0000000000  Biso 1.0 Na
Na6 1.0000000000 0.7596166891 0.0000000000 0.0000000000  Biso 1.0 Na
P7 1.0000000000 0.6666668065 0.3333334773 0.0000000000  Biso 1.0 P
P8 1.0000000000 0.3333333292 0.6666665227 0.0000000000  Biso 1.0 P
P9 1.0000000000 0.0000000000 0.0000000000 0.5000000000  Biso 1.0 P
