# AFLOW.org Repositories
# Ba1O4S1   [FCC,FCC,cF24] (STD_PRIM doi:1
data_Ba1O4S1
_pd_phase_name Ba1O4S1
_cell_length_a  5.2225476869
_cell_length_b  5.2225476869
_cell_length_c  5.2225476869
_cell_angle_alpha  60.0000000000
_cell_angle_beta  60.0000000000
_cell_angle_gamma  60.0000000000
_symmetry_space_group_name_H-M  'P1'
_symmetry_Int_Tables_Number  1
loop_
_symmetry_equiv_pos_site_id
_symmetry_equiv_pos_as_xyz
  1  x,y,z
loop_
 _atom_site_label
 _atom_site_occupancy
 _atom_site_fract_x
 _atom_site_fract_y
 _atom_site_fract_z
 _atom_site_thermal_displace_type
 _atom_site_B_iso_or_equiv
 _atom_site_type_symbol
Ba1 1.0000000000 0.5000000000 0.5000000000 0.5000000000  Biso 1.0 Ba
O2 1.0000000000 0.8834571499 0.8834571499 0.8834571499  Biso 1.0 O
O3 1.0000000000 0.3496285502 0.8834571499 0.8834571499  Biso 1.0 O
O4 1.0000000000 0.8834571499 0.3496285502 0.8834571499  Biso 1.0 O
O5 1.0000000000 0.8834571499 0.8834571499 0.3496285502  Biso 1.0 O
S6 1.0000000000 0.0000000000 0.0000000000 0.0000000000  Biso 1.0 S
