# AFLOW.org Repositories
# Ba1P1Pt1   [CUB,CUB,cP12] (STD_PRIM doi:
data_Ba1P1Pt1
_pd_phase_name Ba1P1Pt1
_cell_length_a  6.5986066868
_cell_length_b  6.5986066868
_cell_length_c  6.5986066868
_cell_angle_alpha  90.0000000000
_cell_angle_beta  90.0000000000
_cell_angle_gamma  90.0000000000
_symmetry_space_group_name_H-M  'P1'
_symmetry_Int_Tables_Number  1
loop_
_symmetry_equiv_pos_site_id
_symmetry_equiv_pos_as_xyz
  1  x,y,z
loop_
 _atom_site_label
 _atom_site_occupancy
 _atom_site_fract_x
 _atom_site_fract_y
 _atom_site_fract_z
 _atom_site_thermal_displace_type
 _atom_site_B_iso_or_equiv
 _atom_site_type_symbol
Ba1 1.0000000000 0.8601652813 0.8601652813 0.1398347187  Biso 1.0 Ba
Ba2 1.0000000000 0.6398347187 0.1398347187 0.6398347187  Biso 1.0 Ba
Ba3 1.0000000000 0.1398347187 0.3601652813 0.3601652813  Biso 1.0 Ba
Ba4 1.0000000000 0.3601652813 0.6398347187 0.8601652813  Biso 1.0 Ba
P5 1.0000000000 0.5837385635 0.5837385635 0.4162614365  Biso 1.0 P
P6 1.0000000000 0.9162614365 0.4162614365 0.9162614365  Biso 1.0 P
P7 1.0000000000 0.4162614365 0.0837385635 0.0837385635  Biso 1.0 P
P8 1.0000000000 0.0837385635 0.9162614365 0.5837385635  Biso 1.0 P
Pt9 1.0000000000 0.1507062463 0.1507062463 0.8492937537  Biso 1.0 Pt
Pt10 1.0000000000 0.3492937537 0.8492937537 0.3492937537  Biso 1.0 Pt
Pt11 1.0000000000 0.8492937537 0.6507062463 0.6507062463  Biso 1.0 Pt
Pt12 1.0000000000 0.6507062463 0.3492937537 0.1507062463  Biso 1.0 Pt
