# AFLOW.org Repositories
# Ba2Bi3   [ORCI,ORCI,oI10] (STD_PRIM doi:
data_Ba2Bi3
_pd_phase_name Ba2Bi3
_cell_length_a  6.9466033108
_cell_length_b  6.9466033108
_cell_length_c  6.9466033108
_cell_angle_alpha  138.9449851072
_cell_angle_beta  109.9410955276
_cell_angle_gamma  84.5410150019
_symmetry_space_group_name_H-M  'P1'
_symmetry_Int_Tables_Number  1
loop_
_symmetry_equiv_pos_site_id
_symmetry_equiv_pos_as_xyz
  1  x,y,z
loop_
 _atom_site_label
 _atom_site_occupancy
 _atom_site_fract_x
 _atom_site_fract_y
 _atom_site_fract_z
 _atom_site_thermal_displace_type
 _atom_site_B_iso_or_equiv
 _atom_site_type_symbol
Ba1 1.0000000000 0.7233720893 0.2233720893 0.5000000000  Biso 1.0 Ba
Ba2 1.0000000000 0.2766279107 0.7766279107 0.5000000000  Biso 1.0 Ba
Bi3 1.0000000000 0.0000000000 0.0000000000 0.0000000000  Biso 1.0 Bi
Bi4 1.0000000000 0.2953574031 0.5000000000 0.7953574031  Biso 1.0 Bi
Bi5 1.0000000000 0.7046425969 0.5000000000 0.2046425969  Biso 1.0 Bi
