# AFLOW.org Repositories
# Be2W1   [HEX,HEX,hP12] (STD_PRIM doi:10.
data_Be2W1
_pd_phase_name Be2W1
_cell_length_a  4.4734274093
_cell_length_b  4.4734274093
_cell_length_c  7.3566507380
_cell_angle_alpha  90.0000000000
_cell_angle_beta  90.0000000000
_cell_angle_gamma  120.0000000000
_symmetry_space_group_name_H-M  'P1'
_symmetry_Int_Tables_Number  1
loop_
_symmetry_equiv_pos_site_id
_symmetry_equiv_pos_as_xyz
  1  x,y,z
loop_
 _atom_site_label
 _atom_site_occupancy
 _atom_site_fract_x
 _atom_site_fract_y
 _atom_site_fract_z
 _atom_site_thermal_displace_type
 _atom_site_B_iso_or_equiv
 _atom_site_type_symbol
Be1 1.0000000000 0.0000000000 0.0000000000 0.0000000000  Biso 1.0 Be
Be2 1.0000000000 0.0000000000 0.0000000000 0.5000000000  Biso 1.0 Be
Be3 1.0000000000 0.8300966537 0.6601843644 0.2500000000  Biso 1.0 Be
Be4 1.0000000000 0.3398156356 0.1699033463 0.2500000000  Biso 1.0 Be
Be5 1.0000000000 0.8300851656 0.1699148344 0.2500000000  Biso 1.0 Be
Be6 1.0000000000 0.1699033463 0.3398156356 0.7500000000  Biso 1.0 Be
Be7 1.0000000000 0.6601843644 0.8300966537 0.7500000000  Biso 1.0 Be
Be8 1.0000000000 0.1699148344 0.8300851656 0.7500000000  Biso 1.0 Be
W9 1.0000000000 0.3333335967 0.6666664033 0.0629877496  Biso 1.0 W
W10 1.0000000000 0.6666664033 0.3333335967 0.5629877496  Biso 1.0 W
W11 1.0000000000 0.6666664033 0.3333335967 0.9370122504  Biso 1.0 W
W12 1.0000000000 0.3333335967 0.6666664033 0.4370122504  Biso 1.0 W
