# AFLOW.org Repositories
# Be3N2   [HEX,HEX,hP10] (STD_PRIM doi:10.
data_Be3N2
_pd_phase_name Be3N2
_cell_length_a  2.8482841468
_cell_length_b  2.8482841468
_cell_length_c  9.7604913803
_cell_angle_alpha  90.0000000000
_cell_angle_beta  90.0000000000
_cell_angle_gamma  120.0000000000
_symmetry_space_group_name_H-M  'P1'
_symmetry_Int_Tables_Number  1
loop_
_symmetry_equiv_pos_site_id
_symmetry_equiv_pos_as_xyz
  1  x,y,z
loop_
 _atom_site_label
 _atom_site_occupancy
 _atom_site_fract_x
 _atom_site_fract_y
 _atom_site_fract_z
 _atom_site_thermal_displace_type
 _atom_site_B_iso_or_equiv
 _atom_site_type_symbol
Be1 1.0000000000 0.3333176943 0.6666823057 0.0783518196  Biso 1.0 Be
Be2 1.0000000000 0.6666823057 0.3333176943 0.5783518196  Biso 1.0 Be
Be3 1.0000000000 0.6666823057 0.3333176943 0.9216481804  Biso 1.0 Be
Be4 1.0000000000 0.3333176943 0.6666823057 0.4216481804  Biso 1.0 Be
Be5 1.0000000000 0.0000000000 0.0000000000 0.2500000000  Biso 1.0 Be
Be6 1.0000000000 0.0000000000 0.0000000000 0.7500000000  Biso 1.0 Be
N7 1.0000000000 0.0000000000 0.0000000000 0.0000000000  Biso 1.0 N
N8 1.0000000000 0.0000000000 0.0000000000 0.5000000000  Biso 1.0 N
N9 1.0000000000 0.3333087763 0.6666912237 0.2500000000  Biso 1.0 N
N10 1.0000000000 0.6666912237 0.3333087763 0.7500000000  Biso 1.0 N
