# AFLOW.org Repositories
# Bi1Dy1Rh1   [HEX,HEX,hP9] (STD_PRIM doi:
data_Bi1Dy1Rh1
_pd_phase_name Bi1Dy1Rh1
_cell_length_a  7.6551070633
_cell_length_b  7.6551070633
_cell_length_c  3.9659644868
_cell_angle_alpha  90.0000000000
_cell_angle_beta  90.0000000000
_cell_angle_gamma  120.0000000000
_symmetry_space_group_name_H-M  'P1'
_symmetry_Int_Tables_Number  1
loop_
_symmetry_equiv_pos_site_id
_symmetry_equiv_pos_as_xyz
  1  x,y,z
loop_
 _atom_site_label
 _atom_site_occupancy
 _atom_site_fract_x
 _atom_site_fract_y
 _atom_site_fract_z
 _atom_site_thermal_displace_type
 _atom_site_B_iso_or_equiv
 _atom_site_type_symbol
Bi1 1.0000000000 0.0000000000 0.7338540643 0.5000000000  Biso 1.0 Bi
Bi2 1.0000000000 0.2661459357 0.2661459357 0.5000000000  Biso 1.0 Bi
Bi3 1.0000000000 0.7338427897 0.0000000000 0.5000000000  Biso 1.0 Bi
Dy4 1.0000000000 0.0000000000 0.3990657987 0.0000000000  Biso 1.0 Dy
Dy5 1.0000000000 0.6009342013 0.6009342013 0.0000000000  Biso 1.0 Dy
Dy6 1.0000000000 0.3990685883 0.0000000000 0.0000000000  Biso 1.0 Dy
Rh7 1.0000000000 0.6666718694 0.3333499697 0.5000000000  Biso 1.0 Rh
Rh8 1.0000000000 0.3333218997 0.6666500303 0.5000000000  Biso 1.0 Rh
Rh9 1.0000000000 0.0000000000 0.0000000000 0.0000000000  Biso 1.0 Rh
