# AFLOW.org Repositories
# Bi1F4Rb1   [FCC,FCC,cF96] (STD_PRIM doi:
data_Bi1F4Rb1
_pd_phase_name Bi1F4Rb1
_cell_length_a  8.5580739438
_cell_length_b  8.5580739438
_cell_length_c  8.5580739438
_cell_angle_alpha  60.0000000000
_cell_angle_beta  60.0000000000
_cell_angle_gamma  60.0000000000
_symmetry_space_group_name_H-M  'P1'
_symmetry_Int_Tables_Number  1
loop_
_symmetry_equiv_pos_site_id
_symmetry_equiv_pos_as_xyz
  1  x,y,z
loop_
 _atom_site_label
 _atom_site_occupancy
 _atom_site_fract_x
 _atom_site_fract_y
 _atom_site_fract_z
 _atom_site_thermal_displace_type
 _atom_site_B_iso_or_equiv
 _atom_site_type_symbol
Bi1 1.0000000000 0.5000000000 0.5000000000 0.5000000000  Biso 1.0 Bi
Bi2 1.0000000000 0.0000000000 0.0000000000 0.5000000000  Biso 1.0 Bi
Bi3 1.0000000000 0.5000000000 0.0000000000 0.5000000000  Biso 1.0 Bi
Bi4 1.0000000000 0.5000000000 0.0000000000 0.0000000000  Biso 1.0 Bi
F5 1.0000000000 0.4123492837 0.3376507163 0.8376507163  Biso 1.0 F
F6 1.0000000000 0.8376507163 0.9123492837 0.4123492837  Biso 1.0 F
F7 1.0000000000 0.4123492837 0.3376507163 0.4123492837  Biso 1.0 F
F8 1.0000000000 0.8376507163 0.9123492837 0.8376507163  Biso 1.0 F
F9 1.0000000000 0.8376507163 0.3376507163 0.4123492837  Biso 1.0 F
F10 1.0000000000 0.4123492837 0.9123492837 0.8376507163  Biso 1.0 F
F11 1.0000000000 0.1623492837 0.0876507163 0.1623492837  Biso 1.0 F
F12 1.0000000000 0.5876507163 0.6623492837 0.5876507163  Biso 1.0 F
F13 1.0000000000 0.1623492837 0.0876507163 0.5876507163  Biso 1.0 F
F14 1.0000000000 0.5876507163 0.6623492837 0.1623492837  Biso 1.0 F
F15 1.0000000000 0.1623492837 0.6623492837 0.5876507163  Biso 1.0 F
F16 1.0000000000 0.5876507163 0.0876507163 0.1623492837  Biso 1.0 F
F17 1.0000000000 0.3750000000 0.8750000000 0.3750000000  Biso 1.0 F
F18 1.0000000000 0.6250000000 0.1250000000 0.6250000000  Biso 1.0 F
F19 1.0000000000 0.1250000000 0.6250000000 0.1250000000  Biso 1.0 F
F20 1.0000000000 0.8750000000 0.3750000000 0.8750000000  Biso 1.0 F
Rb21 1.0000000000 0.0000000000 0.0000000000 0.0000000000  Biso 1.0 Rb
Rb22 1.0000000000 0.5000000000 0.5000000000 0.0000000000  Biso 1.0 Rb
Rb23 1.0000000000 0.0000000000 0.5000000000 0.0000000000  Biso 1.0 Rb
Rb24 1.0000000000 0.0000000000 0.5000000000 0.5000000000  Biso 1.0 Rb
