# AFLOW.org Repositories
# Bi1Pd1Se1   [CUB,CUB,cP12] (STD_PRIM doi
data_Bi1Pd1Se1
_pd_phase_name Bi1Pd1Se1
_cell_length_a  6.5255825666
_cell_length_b  6.5255825666
_cell_length_c  6.5255825666
_cell_angle_alpha  90.0000000000
_cell_angle_beta  90.0000000000
_cell_angle_gamma  90.0000000000
_symmetry_space_group_name_H-M  'P1'
_symmetry_Int_Tables_Number  1
loop_
_symmetry_equiv_pos_site_id
_symmetry_equiv_pos_as_xyz
  1  x,y,z
loop_
 _atom_site_label
 _atom_site_occupancy
 _atom_site_fract_x
 _atom_site_fract_y
 _atom_site_fract_z
 _atom_site_thermal_displace_type
 _atom_site_B_iso_or_equiv
 _atom_site_type_symbol
Bi1 1.0000000000 0.6277970250 0.6277970250 0.3722029750  Biso 1.0 Bi
Bi2 1.0000000000 0.8722029750 0.3722029750 0.8722029750  Biso 1.0 Bi
Bi3 1.0000000000 0.3722029750 0.1277970250 0.1277970250  Biso 1.0 Bi
Bi4 1.0000000000 0.1277970250 0.8722029750 0.6277970250  Biso 1.0 Bi
Pd5 1.0000000000 0.9881637739 0.9881637739 0.0118362261  Biso 1.0 Pd
Pd6 1.0000000000 0.5118362261 0.0118362261 0.5118362261  Biso 1.0 Pd
Pd7 1.0000000000 0.0118362261 0.4881637739 0.4881637739  Biso 1.0 Pd
Pd8 1.0000000000 0.4881637739 0.5118362261 0.9881637739  Biso 1.0 Pd
Se9 1.0000000000 0.3804047428 0.3804047428 0.6195952572  Biso 1.0 Se
Se10 1.0000000000 0.1195952572 0.6195952572 0.1195952572  Biso 1.0 Se
Se11 1.0000000000 0.6195952572 0.8804047428 0.8804047428  Biso 1.0 Se
Se12 1.0000000000 0.8804047428 0.1195952572 0.3804047428  Biso 1.0 Se
