# AFLOW.org Repositories
# Bi2O3   [BCC,BCC,cI80] (STD_PRIM doi:10.
data_Bi2O3
_pd_phase_name Bi2O3
_cell_length_a  9.7237656134
_cell_length_b  9.7237656134
_cell_length_c  9.7237656134
_cell_angle_alpha  109.4712206345
_cell_angle_beta  109.4712206345
_cell_angle_gamma  109.4712206345
_symmetry_space_group_name_H-M  'P1'
_symmetry_Int_Tables_Number  1
loop_
_symmetry_equiv_pos_site_id
_symmetry_equiv_pos_as_xyz
  1  x,y,z
loop_
 _atom_site_label
 _atom_site_occupancy
 _atom_site_fract_x
 _atom_site_fract_y
 _atom_site_fract_z
 _atom_site_thermal_displace_type
 _atom_site_B_iso_or_equiv
 _atom_site_type_symbol
Bi1 1.0000000000 0.0000000000 0.5000000000 0.0000000000  Biso 1.0 Bi
Bi2 1.0000000000 0.5000000000 0.0000000000 0.0000000000  Biso 1.0 Bi
Bi3 1.0000000000 0.5000000000 0.5000000000 0.5000000000  Biso 1.0 Bi
Bi4 1.0000000000 0.0000000000 0.0000000000 0.5000000000  Biso 1.0 Bi
Bi5 1.0000000000 0.2762000041 0.0262000041 0.2500000000  Biso 1.0 Bi
Bi6 1.0000000000 0.2237999959 0.4737999959 0.7500000000  Biso 1.0 Bi
Bi7 1.0000000000 0.7500000000 0.7762000041 0.0262000041  Biso 1.0 Bi
Bi8 1.0000000000 0.2500000000 0.7237999959 0.4737999959  Biso 1.0 Bi
Bi9 1.0000000000 0.9737999959 0.7500000000 0.7237999959  Biso 1.0 Bi
Bi10 1.0000000000 0.5262000041 0.2500000000 0.7762000041  Biso 1.0 Bi
Bi11 1.0000000000 0.7237999959 0.9737999959 0.7500000000  Biso 1.0 Bi
Bi12 1.0000000000 0.7762000041 0.5262000041 0.2500000000  Biso 1.0 Bi
Bi13 1.0000000000 0.2500000000 0.2237999959 0.9737999959  Biso 1.0 Bi
Bi14 1.0000000000 0.7500000000 0.2762000041 0.5262000041  Biso 1.0 Bi
Bi15 1.0000000000 0.0262000041 0.2500000000 0.2762000041  Biso 1.0 Bi
Bi16 1.0000000000 0.4737999959 0.7500000000 0.2237999959  Biso 1.0 Bi
O17 1.0000000000 0.5324360595 0.2743776838 0.0506474024  Biso 1.0 O
O18 1.0000000000 0.7762697186 0.2256223162 0.7580583757  Biso 1.0 O
O19 1.0000000000 0.9675639405 0.0182113429 0.7419416243  Biso 1.0 O
O20 1.0000000000 0.7237302814 0.4817886571 0.4493525976  Biso 1.0 O
O21 1.0000000000 0.9493525976 0.2237302814 0.4817886571  Biso 1.0 O
O22 1.0000000000 0.2419416243 0.4675639405 0.0182113429  Biso 1.0 O
O23 1.0000000000 0.2580583757 0.2762697186 0.2256223162  Biso 1.0 O
O24 1.0000000000 0.5506474024 0.0324360595 0.2743776838  Biso 1.0 O
O25 1.0000000000 0.5182113429 0.7419416243 0.4675639405  Biso 1.0 O
O26 1.0000000000 0.9817886571 0.4493525976 0.2237302814  Biso 1.0 O
O27 1.0000000000 0.7743776838 0.0506474024 0.0324360595  Biso 1.0 O
O28 1.0000000000 0.7256223162 0.7580583757 0.2762697186  Biso 1.0 O
O29 1.0000000000 0.4675639405 0.7256223162 0.9493525976  Biso 1.0 O
O30 1.0000000000 0.2237302814 0.7743776838 0.2419416243  Biso 1.0 O
O31 1.0000000000 0.0324360595 0.9817886571 0.2580583757  Biso 1.0 O
O32 1.0000000000 0.2762697186 0.5182113429 0.5506474024  Biso 1.0 O
O33 1.0000000000 0.0506474024 0.7762697186 0.5182113429  Biso 1.0 O
O34 1.0000000000 0.7580583757 0.5324360595 0.9817886571  Biso 1.0 O
O35 1.0000000000 0.7419416243 0.7237302814 0.7743776838  Biso 1.0 O
O36 1.0000000000 0.4493525976 0.9675639405 0.7256223162  Biso 1.0 O
O37 1.0000000000 0.4817886571 0.2580583757 0.5324360595  Biso 1.0 O
O38 1.0000000000 0.0182113429 0.5506474024 0.7762697186  Biso 1.0 O
O39 1.0000000000 0.2256223162 0.9493525976 0.9675639405  Biso 1.0 O
O40 1.0000000000 0.2743776838 0.2419416243 0.7237302814  Biso 1.0 O
