# AFLOW.org Repositories
# Bi4Ce3Pt3   [BCC,BCC,cI40] (STD_PRIM doi
data_Bi4Ce3Pt3
_pd_phase_name Bi4Ce3Pt3
_cell_length_a  8.6607927651
_cell_length_b  8.6607927651
_cell_length_c  8.6607927651
_cell_angle_alpha  109.4712206345
_cell_angle_beta  109.4712206345
_cell_angle_gamma  109.4712206345
_symmetry_space_group_name_H-M  'P1'
_symmetry_Int_Tables_Number  1
loop_
_symmetry_equiv_pos_site_id
_symmetry_equiv_pos_as_xyz
  1  x,y,z
loop_
 _atom_site_label
 _atom_site_occupancy
 _atom_site_fract_x
 _atom_site_fract_y
 _atom_site_fract_z
 _atom_site_thermal_displace_type
 _atom_site_B_iso_or_equiv
 _atom_site_type_symbol
Bi1 1.0000000000 0.0000000000 0.0000000000 0.8225206197  Biso 1.0 Bi
Bi2 1.0000000000 0.6774793803 0.1774793803 0.6774793803  Biso 1.0 Bi
Bi3 1.0000000000 0.8225206197 0.5000000000 0.5000000000  Biso 1.0 Bi
Bi4 1.0000000000 0.5000000000 0.3225206197 0.0000000000  Biso 1.0 Bi
Bi5 1.0000000000 0.0000000000 0.0000000000 0.3225206197  Biso 1.0 Bi
Bi6 1.0000000000 0.1774793803 0.6774793803 0.1774793803  Biso 1.0 Bi
Bi7 1.0000000000 0.5000000000 0.8225206197 0.0000000000  Biso 1.0 Bi
Bi8 1.0000000000 0.3225206197 0.5000000000 0.5000000000  Biso 1.0 Bi
Ce9 1.0000000000 0.2500000000 0.8750000000 0.6250000000  Biso 1.0 Ce
Ce10 1.0000000000 0.7500000000 0.6250000000 0.8750000000  Biso 1.0 Ce
Ce11 1.0000000000 0.6250000000 0.7500000000 0.3750000000  Biso 1.0 Ce
Ce12 1.0000000000 0.8750000000 0.2500000000 0.1250000000  Biso 1.0 Ce
Ce13 1.0000000000 0.1250000000 0.3750000000 0.7500000000  Biso 1.0 Ce
Ce14 1.0000000000 0.3750000000 0.1250000000 0.2500000000  Biso 1.0 Ce
Pt15 1.0000000000 0.2500000000 0.3750000000 0.1250000000  Biso 1.0 Pt
Pt16 1.0000000000 0.7500000000 0.1250000000 0.3750000000  Biso 1.0 Pt
Pt17 1.0000000000 0.1250000000 0.7500000000 0.8750000000  Biso 1.0 Pt
Pt18 1.0000000000 0.3750000000 0.2500000000 0.6250000000  Biso 1.0 Pt
Pt19 1.0000000000 0.6250000000 0.8750000000 0.7500000000  Biso 1.0 Pt
Pt20 1.0000000000 0.8750000000 0.6250000000 0.2500000000  Biso 1.0 Pt
