# AFLOW.org Repositories
# Br1Cu1   [CUB,CUB,cP16] (STD_PRIM doi:10
data_Br1Cu1
_pd_phase_name Br1Cu1
_cell_length_a  6.9594726891
_cell_length_b  6.9594726891
_cell_length_c  6.9594726891
_cell_angle_alpha  90.0000000000
_cell_angle_beta  90.0000000000
_cell_angle_gamma  90.0000000000
_symmetry_space_group_name_H-M  'P1'
_symmetry_Int_Tables_Number  1
loop_
_symmetry_equiv_pos_site_id
_symmetry_equiv_pos_as_xyz
  1  x,y,z
loop_
 _atom_site_label
 _atom_site_occupancy
 _atom_site_fract_x
 _atom_site_fract_y
 _atom_site_fract_z
 _atom_site_thermal_displace_type
 _atom_site_B_iso_or_equiv
 _atom_site_type_symbol
Br1 1.0000000000 0.8456668900 0.8456668900 0.1543331100  Biso 1.0 Br
Br2 1.0000000000 0.6543331100 0.1543331100 0.6543331100  Biso 1.0 Br
Br3 1.0000000000 0.1543331100 0.3456668900 0.3456668900  Biso 1.0 Br
Br4 1.0000000000 0.3456668900 0.6543331100 0.8456668900  Biso 1.0 Br
Br5 1.0000000000 0.1543331100 0.1543331100 0.8456668900  Biso 1.0 Br
Br6 1.0000000000 0.3456668900 0.8456668900 0.3456668900  Biso 1.0 Br
Br7 1.0000000000 0.8456668900 0.6543331100 0.6543331100  Biso 1.0 Br
Br8 1.0000000000 0.6543331100 0.3456668900 0.1543331100  Biso 1.0 Br
Cu9 1.0000000000 0.3692935843 0.3692935843 0.6307064157  Biso 1.0 Cu
Cu10 1.0000000000 0.1307064157 0.6307064157 0.1307064157  Biso 1.0 Cu
Cu11 1.0000000000 0.6307064157 0.8692935843 0.8692935843  Biso 1.0 Cu
Cu12 1.0000000000 0.8692935843 0.1307064157 0.3692935843  Biso 1.0 Cu
Cu13 1.0000000000 0.6307064157 0.6307064157 0.3692935843  Biso 1.0 Cu
Cu14 1.0000000000 0.8692935843 0.3692935843 0.8692935843  Biso 1.0 Cu
Cu15 1.0000000000 0.3692935843 0.1307064157 0.1307064157  Biso 1.0 Cu
Cu16 1.0000000000 0.1307064157 0.8692935843 0.6307064157  Biso 1.0 Cu
