# AFLOW.org Repositories
# Br1F1Sr1   [TET,TET,tP6] (STD_PRIM doi:1
data_Br1F1Sr1
_pd_phase_name Br1F1Sr1
_cell_length_a  4.2541886140
_cell_length_b  4.2541886140
_cell_length_c  7.4998433791
_cell_angle_alpha  90.0000000000
_cell_angle_beta  90.0000000000
_cell_angle_gamma  90.0000000000
_symmetry_space_group_name_H-M  'P1'
_symmetry_Int_Tables_Number  1
loop_
_symmetry_equiv_pos_site_id
_symmetry_equiv_pos_as_xyz
  1  x,y,z
loop_
 _atom_site_label
 _atom_site_occupancy
 _atom_site_fract_x
 _atom_site_fract_y
 _atom_site_fract_z
 _atom_site_thermal_displace_type
 _atom_site_B_iso_or_equiv
 _atom_site_type_symbol
Br1 1.0000000000 0.2500000000 0.2500000000 0.6476523626  Biso 1.0 Br
Br2 1.0000000000 0.7500000000 0.7500000000 0.3523476374  Biso 1.0 Br
F3 1.0000000000 0.7500000000 0.2500000000 0.0000000000  Biso 1.0 F
F4 1.0000000000 0.2500000000 0.7500000000 0.0000000000  Biso 1.0 F
Sr5 1.0000000000 0.2500000000 0.2500000000 0.1839750070  Biso 1.0 Sr
Sr6 1.0000000000 0.7500000000 0.7500000000 0.8160249930  Biso 1.0 Sr
