# AFLOW.org Repositories
# Br1Na1O3   [CUB,CUB,cP20] (STD_PRIM doi:
data_Br1Na1O3
_pd_phase_name Br1Na1O3
_cell_length_a  6.8139958667
_cell_length_b  6.8139958667
_cell_length_c  6.8139958667
_cell_angle_alpha  90.0000000000
_cell_angle_beta  90.0000000000
_cell_angle_gamma  90.0000000000
_symmetry_space_group_name_H-M  'P1'
_symmetry_Int_Tables_Number  1
loop_
_symmetry_equiv_pos_site_id
_symmetry_equiv_pos_as_xyz
  1  x,y,z
loop_
 _atom_site_label
 _atom_site_occupancy
 _atom_site_fract_x
 _atom_site_fract_y
 _atom_site_fract_z
 _atom_site_thermal_displace_type
 _atom_site_B_iso_or_equiv
 _atom_site_type_symbol
Br1 1.0000000000 0.5948553568 0.5948553568 0.4051446432  Biso 1.0 Br
Br2 1.0000000000 0.9051446432 0.4051446432 0.9051446432  Biso 1.0 Br
Br3 1.0000000000 0.4051446432 0.0948553568 0.0948553568  Biso 1.0 Br
Br4 1.0000000000 0.0948553568 0.9051446432 0.5948553568  Biso 1.0 Br
Na5 1.0000000000 0.9223609030 0.9223609030 0.0776390970  Biso 1.0 Na
Na6 1.0000000000 0.5776390970 0.0776390970 0.5776390970  Biso 1.0 Na
Na7 1.0000000000 0.0776390970 0.4223609030 0.4223609030  Biso 1.0 Na
Na8 1.0000000000 0.4223609030 0.5776390970 0.9223609030  Biso 1.0 Na
O9 1.0000000000 0.7142520781 0.4017669325 0.5051584680  Biso 1.0 O
O10 1.0000000000 0.7857479219 0.5982330675 0.0051584680  Biso 1.0 O
O11 1.0000000000 0.2857479219 0.9017669325 0.9948415320  Biso 1.0 O
O12 1.0000000000 0.2142520781 0.0982330675 0.4948415320  Biso 1.0 O
O13 1.0000000000 0.4948415320 0.7142520781 0.5982330675  Biso 1.0 O
O14 1.0000000000 0.9948415320 0.7857479219 0.4017669325  Biso 1.0 O
O15 1.0000000000 0.0051584680 0.2857479219 0.0982330675  Biso 1.0 O
O16 1.0000000000 0.5051584680 0.2142520781 0.9017669325  Biso 1.0 O
O17 1.0000000000 0.4017669325 0.4948415320 0.2857479219  Biso 1.0 O
O18 1.0000000000 0.5982330675 0.9948415320 0.2142520781  Biso 1.0 O
O19 1.0000000000 0.9017669325 0.0051584680 0.7142520781  Biso 1.0 O
O20 1.0000000000 0.0982330675 0.5051584680 0.7857479219  Biso 1.0 O
