# AFLOW.org Repositories
# C1Li2O3   [HEX,HEX,hP12] (STD_PRIM doi:1
data_C1Li2O3
_pd_phase_name C1Li2O3
_cell_length_a  4.6583252656
_cell_length_b  4.6583252656
_cell_length_c  5.3873598747
_cell_angle_alpha  90.0000000000
_cell_angle_beta  90.0000000000
_cell_angle_gamma  120.0000000000
_symmetry_space_group_name_H-M  'P1'
_symmetry_Int_Tables_Number  1
loop_
_symmetry_equiv_pos_site_id
_symmetry_equiv_pos_as_xyz
  1  x,y,z
loop_
 _atom_site_label
 _atom_site_occupancy
 _atom_site_fract_x
 _atom_site_fract_y
 _atom_site_fract_z
 _atom_site_thermal_displace_type
 _atom_site_B_iso_or_equiv
 _atom_site_type_symbol
C1 1.0000000000 0.0000000000 0.0000000000 0.2500000000  Biso 1.0 C
C2 1.0000000000 0.0000000000 0.0000000000 0.7500000000  Biso 1.0 C
Li3 1.0000000000 0.3333561536 0.6666780768 0.0000000000  Biso 1.0 Li
Li4 1.0000000000 0.6666438464 0.3333219232 0.5000000000  Biso 1.0 Li
Li5 1.0000000000 0.6666438464 0.3333219232 0.0000000000  Biso 1.0 Li
Li6 1.0000000000 0.3333561536 0.6666780768 0.5000000000  Biso 1.0 Li
O7 1.0000000000 0.7202613733 0.7202613733 0.2500000000  Biso 1.0 O
O8 1.0000000000 0.2797378380 0.0000000000 0.2500000000  Biso 1.0 O
O9 1.0000000000 0.0000000000 0.2797288540 0.2500000000  Biso 1.0 O
O10 1.0000000000 0.2797386267 0.2797386267 0.7500000000  Biso 1.0 O
O11 1.0000000000 0.7202621620 0.0000000000 0.7500000000  Biso 1.0 O
O12 1.0000000000 0.0000000000 0.7202711460 0.7500000000  Biso 1.0 O
