# AFLOW.org Repositories
# C1O2   [BCT,BCT2,tI12] (STD_PRIM doi:10.
data_C1O2
_pd_phase_name C1O2
_cell_length_a  4.1067813325
_cell_length_b  4.1067813325
_cell_length_c  4.1067813325
_cell_angle_alpha  122.2519539786
_cell_angle_beta  122.2519539786
_cell_angle_gamma  86.1418401350
_symmetry_space_group_name_H-M  'P1'
_symmetry_Int_Tables_Number  1
loop_
_symmetry_equiv_pos_site_id
_symmetry_equiv_pos_as_xyz
  1  x,y,z
loop_
 _atom_site_label
 _atom_site_occupancy
 _atom_site_fract_x
 _atom_site_fract_y
 _atom_site_fract_z
 _atom_site_thermal_displace_type
 _atom_site_B_iso_or_equiv
 _atom_site_type_symbol
C1 1.0000000000 0.0000000000 0.0000000000 0.0000000000  Biso 1.0 C
C2 1.0000000000 0.7500000000 0.2500000000 0.5000000000  Biso 1.0 C
O3 1.0000000000 0.7100621191 0.6250000000 0.5850621191  Biso 1.0 O
O4 1.0000000000 0.0399378809 0.1250000000 0.4149378809  Biso 1.0 O
O5 1.0000000000 0.8750000000 0.2899378809 0.9149378809  Biso 1.0 O
O6 1.0000000000 0.3750000000 0.9600621191 0.0850621191  Biso 1.0 O
