# AFLOW.org Repositories
# C1Si1   [HEX,HEX,hP28] (STD_PRIM doi:10.
data_C1Si1
_pd_phase_name C1Si1
_cell_length_a  3.0947264510
_cell_length_b  3.0947264510
_cell_length_c  35.4212765156
_cell_angle_alpha  90.0000000000
_cell_angle_beta  90.0000000000
_cell_angle_gamma  120.0000000000
_symmetry_space_group_name_H-M  'P1'
_symmetry_Int_Tables_Number  1
loop_
_symmetry_equiv_pos_site_id
_symmetry_equiv_pos_as_xyz
  1  x,y,z
loop_
 _atom_site_label
 _atom_site_occupancy
 _atom_site_fract_x
 _atom_site_fract_y
 _atom_site_fract_z
 _atom_site_thermal_displace_type
 _atom_site_B_iso_or_equiv
 _atom_site_type_symbol
C1 1.0000000000 0.0000000000 0.0000000000 0.0537016939  Biso 1.0 C
C2 1.0000000000 0.3333269520 0.6666634760 0.1250058089  Biso 1.0 C
C3 1.0000000000 0.6666436351 0.3333218176 0.1964509904  Biso 1.0 C
C4 1.0000000000 0.0000000000 0.0000000000 0.2677860229  Biso 1.0 C
C5 1.0000000000 0.3333601328 0.6666800664 0.3394196983  Biso 1.0 C
C6 1.0000000000 0.0000000000 0.0000000000 0.4107189787  Biso 1.0 C
C7 1.0000000000 0.6666731344 0.3333365672 0.4820686419  Biso 1.0 C
C8 1.0000000000 0.3333215579 0.6666607790 0.5537034880  Biso 1.0 C
C9 1.0000000000 0.6666431316 0.3333215658 0.6250060182  Biso 1.0 C
C10 1.0000000000 0.0000000000 0.0000000000 0.6963567597  Biso 1.0 C
C11 1.0000000000 0.3333600272 0.6666800136 0.7679909782  Biso 1.0 C
C12 1.0000000000 0.0000000000 0.0000000000 0.8392916961  Biso 1.0 C
C13 1.0000000000 0.6666742698 0.3333371349 0.9107331060  Biso 1.0 C
C14 1.0000000000 0.3333586913 0.6666793456 0.9820652039  Biso 1.0 C
Si15 1.0000000000 0.0000000000 0.0000000000 0.0000000000  Biso 1.0 Si
Si16 1.0000000000 0.3333571365 0.6666785682 0.0714488270  Biso 1.0 Si
Si17 1.0000000000 0.6666741253 0.3333370626 0.1428387084  Biso 1.0 Si
Si18 1.0000000000 0.0000000000 0.0000000000 0.2142216359  Biso 1.0 Si
Si19 1.0000000000 0.3333601251 0.6666800625 0.2856951716  Biso 1.0 Si
Si20 1.0000000000 0.0000000000 0.0000000000 0.3571594157  Biso 1.0 Si
Si21 1.0000000000 0.6666433915 0.3333216957 0.4285009058  Biso 1.0 Si
Si22 1.0000000000 0.3333212460 0.6666606230 0.4999810520  Biso 1.0 Si
Si23 1.0000000000 0.6666744684 0.3333372342 0.5714488494  Biso 1.0 Si
Si24 1.0000000000 0.0000000000 0.0000000000 0.6427911361  Biso 1.0 Si
Si25 1.0000000000 0.3333601172 0.6666800586 0.7142704110  Biso 1.0 Si
Si26 1.0000000000 0.0000000000 0.0000000000 0.7857330326  Biso 1.0 Si
Si27 1.0000000000 0.6666439492 0.3333219746 0.8571211580  Biso 1.0 Si
Si28 1.0000000000 0.3333263766 0.6666631883 0.9285068325  Biso 1.0 Si
