# AFLOW.org Repositories
# C1Si1   [HEX,HEX,hP42] (STD_PRIM doi:10.
data_C1Si1
_pd_phase_name C1Si1
_cell_length_a  3.0947772218
_cell_length_b  3.0947772218
_cell_length_c  53.1375460449
_cell_angle_alpha  90.0000000000
_cell_angle_beta  90.0000000000
_cell_angle_gamma  120.0000000000
_symmetry_space_group_name_H-M  'P1'
_symmetry_Int_Tables_Number  1
loop_
_symmetry_equiv_pos_site_id
_symmetry_equiv_pos_as_xyz
  1  x,y,z
loop_
 _atom_site_label
 _atom_site_occupancy
 _atom_site_fract_x
 _atom_site_fract_y
 _atom_site_fract_z
 _atom_site_thermal_displace_type
 _atom_site_B_iso_or_equiv
 _atom_site_type_symbol
C1 1.0000000000 0.0000000000 0.0000000000 0.0357956954  Biso 1.0 C
C2 1.0000000000 0.6666678762 0.3333321238 0.0833365018  Biso 1.0 C
C3 1.0000000000 0.3333189726 0.6666810274 0.1309065782  Biso 1.0 C
C4 1.0000000000 0.0000000000 0.0000000000 0.1786560423  Biso 1.0 C
C5 1.0000000000 0.3333321129 0.6666678871 0.2261968672  Biso 1.0 C
C6 1.0000000000 0.6666810364 0.3333189636 0.2737646803  Biso 1.0 C
C7 1.0000000000 0.0000000000 0.0000000000 0.3215112322  Biso 1.0 C
C8 1.0000000000 0.6666678715 0.3333321285 0.3690512821  Biso 1.0 C
C9 1.0000000000 0.3333189721 0.6666810279 0.4166202619  Biso 1.0 C
C10 1.0000000000 0.0000000000 0.0000000000 0.4643673140  Biso 1.0 C
C11 1.0000000000 0.3333321641 0.6666678359 0.5119062925  Biso 1.0 C
C12 1.0000000000 0.6666810451 0.3333189549 0.5594740290  Biso 1.0 C
C13 1.0000000000 0.0000000000 0.0000000000 0.6072222390  Biso 1.0 C
C14 1.0000000000 0.6666679994 0.3333320006 0.6547704046  Biso 1.0 C
C15 1.0000000000 0.3333208477 0.6666791523 0.7023922982  Biso 1.0 C
C16 1.0000000000 0.0000000000 0.0000000000 0.7500114590  Biso 1.0 C
C17 1.0000000000 0.6666673860 0.3333326140 0.7976231687  Biso 1.0 C
C18 1.0000000000 0.3333189013 0.6666810987 0.8451894487  Biso 1.0 C
C19 1.0000000000 0.0000000000 0.0000000000 0.8929373116  Biso 1.0 C
C20 1.0000000000 0.3333321543 0.6666678457 0.9404779518  Biso 1.0 C
C21 1.0000000000 0.6666810265 0.3333189735 0.9880470602  Biso 1.0 C
Si22 1.0000000000 0.0000000000 0.0000000000 0.0000000000  Biso 1.0 Si
Si23 1.0000000000 0.6666807171 0.3333192829 0.0476254750  Biso 1.0 Si
Si24 1.0000000000 0.3333321240 0.6666678760 0.0952002421  Biso 1.0 Si
Si25 1.0000000000 0.0000000000 0.0000000000 0.1428467807  Biso 1.0 Si
Si26 1.0000000000 0.3333192890 0.6666807110 0.1904824164  Biso 1.0 Si
Si27 1.0000000000 0.6666678599 0.3333321401 0.2380572988  Biso 1.0 Si
Si28 1.0000000000 0.0000000000 0.0000000000 0.2857031710  Biso 1.0 Si
Si29 1.0000000000 0.6666805658 0.3333194342 0.3333390277  Biso 1.0 Si
Si30 1.0000000000 0.3333321255 0.6666678745 0.3809150782  Biso 1.0 Si
Si31 1.0000000000 0.0000000000 0.0000000000 0.4285620429  Biso 1.0 Si
Si32 1.0000000000 0.3333192927 0.6666807073 0.4761979969  Biso 1.0 Si
Si33 1.0000000000 0.6666679006 0.3333320994 0.5237729931  Biso 1.0 Si
Si34 1.0000000000 0.0000000000 0.0000000000 0.5714200909  Biso 1.0 Si
Si35 1.0000000000 0.6666807354 0.3333192646 0.6190594152  Biso 1.0 Si
Si36 1.0000000000 0.3333324802 0.6666675198 0.6666586364  Biso 1.0 Si
Si37 1.0000000000 0.0000000000 0.0000000000 0.7142754192  Biso 1.0 Si
Si38 1.0000000000 0.6666790967 0.3333209033 0.7618920732  Biso 1.0 Si
Si39 1.0000000000 0.3333319975 0.6666680025 0.8094871216  Biso 1.0 Si
Si40 1.0000000000 0.0000000000 0.0000000000 0.8571350080  Biso 1.0 Si
Si41 1.0000000000 0.3333194544 0.6666805456 0.9047721038  Biso 1.0 Si
Si42 1.0000000000 0.6666679008 0.3333320992 0.9523476276  Biso 1.0 Si
