# AFLOW.org Repositories
# C1Si1   [HEX,HEX,hP20] (STD_PRIM doi:10.
data_C1Si1
_pd_phase_name C1Si1
_cell_length_a  3.0941004025
_cell_length_b  3.0941004025
_cell_length_c  25.3094974894
_cell_angle_alpha  90.0000000000
_cell_angle_beta  90.0000000000
_cell_angle_gamma  120.0000000000
_symmetry_space_group_name_H-M  'P1'
_symmetry_Int_Tables_Number  1
loop_
_symmetry_equiv_pos_site_id
_symmetry_equiv_pos_as_xyz
  1  x,y,z
loop_
 _atom_site_label
 _atom_site_occupancy
 _atom_site_fract_x
 _atom_site_fract_y
 _atom_site_fract_z
 _atom_site_thermal_displace_type
 _atom_site_B_iso_or_equiv
 _atom_site_type_symbol
C1 1.0000000000 0.0000000000 0.0000000000 0.0751753479  Biso 1.0 C
C2 1.0000000000 0.3333317447 0.6666658723 0.1750127442  Biso 1.0 C
C3 1.0000000000 0.6666405530 0.3333202765 0.2749146639  Biso 1.0 C
C4 1.0000000000 0.0000000000 0.0000000000 0.3751738052  Biso 1.0 C
C5 1.0000000000 0.6666673734 0.3333336867 0.4748927964  Biso 1.0 C
C6 1.0000000000 0.3333278824 0.6666639412 0.5751751655  Biso 1.0 C
C7 1.0000000000 0.6666401525 0.3333200762 0.6748932725  Biso 1.0 C
C8 1.0000000000 0.0000000000 0.0000000000 0.7751756556  Biso 1.0 C
C9 1.0000000000 0.6666684166 0.3333342083 0.8750129064  Biso 1.0 C
C10 1.0000000000 0.3333595838 0.6666797919 0.9749142002  Biso 1.0 C
Si11 1.0000000000 0.0000000000 0.0000000000 0.0000000000  Biso 1.0 Si
Si12 1.0000000000 0.3333580857 0.6666790428 0.1000145354  Biso 1.0 Si
Si13 1.0000000000 0.6666684946 0.3333342473 0.1999098116  Biso 1.0 Si
Si14 1.0000000000 0.0000000000 0.0000000000 0.2999745614  Biso 1.0 Si
Si15 1.0000000000 0.6666413329 0.3333206664 0.3999554939  Biso 1.0 Si
Si16 1.0000000000 0.3333270150 0.6666635075 0.4999735389  Biso 1.0 Si
Si17 1.0000000000 0.6666686116 0.3333343058 0.5999585826  Biso 1.0 Si
Si18 1.0000000000 0.0000000000 0.0000000000 0.6999719937  Biso 1.0 Si
Si19 1.0000000000 0.6666417457 0.3333208729 0.8000166514  Biso 1.0 Si
Si20 1.0000000000 0.3333313545 0.6666656772 0.8999117081  Biso 1.0 Si
