# AFLOW.org Repositories
# C1Zn3Zr3   [FCC,FCC,cF112] (STD_PRIM doi
data_C1Zn3Zr3
_pd_phase_name C1Zn3Zr3
_cell_length_a  8.6721523166
_cell_length_b  8.6721523166
_cell_length_c  8.6721523166
_cell_angle_alpha  60.0000000000
_cell_angle_beta  60.0000000000
_cell_angle_gamma  60.0000000000
_symmetry_space_group_name_H-M  'P1'
_symmetry_Int_Tables_Number  1
loop_
_symmetry_equiv_pos_site_id
_symmetry_equiv_pos_as_xyz
  1  x,y,z
loop_
 _atom_site_label
 _atom_site_occupancy
 _atom_site_fract_x
 _atom_site_fract_y
 _atom_site_fract_z
 _atom_site_thermal_displace_type
 _atom_site_B_iso_or_equiv
 _atom_site_type_symbol
C1 1.0000000000 0.3750000000 0.3750000000 0.8750000000  Biso 1.0 C
C2 1.0000000000 0.3750000000 0.8750000000 0.3750000000  Biso 1.0 C
C3 1.0000000000 0.8750000000 0.3750000000 0.3750000000  Biso 1.0 C
C4 1.0000000000 0.3750000000 0.3750000000 0.3750000000  Biso 1.0 C
Zn5 1.0000000000 0.0796802330 0.0796802330 0.7609593011  Biso 1.0 Zn
Zn6 1.0000000000 0.0796802330 0.7609593011 0.0796802330  Biso 1.0 Zn
Zn7 1.0000000000 0.7609593011 0.0796802330 0.0796802330  Biso 1.0 Zn
Zn8 1.0000000000 0.0796802330 0.0796802330 0.0796802330  Biso 1.0 Zn
Zn9 1.0000000000 0.6703197670 0.9890406989 0.6703197670  Biso 1.0 Zn
Zn10 1.0000000000 0.6703197670 0.6703197670 0.9890406989  Biso 1.0 Zn
Zn11 1.0000000000 0.9890406989 0.6703197670 0.6703197670  Biso 1.0 Zn
Zn12 1.0000000000 0.6703197670 0.6703197670 0.6703197670  Biso 1.0 Zn
Zn13 1.0000000000 0.8750000000 0.8750000000 0.3750000000  Biso 1.0 Zn
Zn14 1.0000000000 0.8750000000 0.3750000000 0.8750000000  Biso 1.0 Zn
Zn15 1.0000000000 0.3750000000 0.8750000000 0.8750000000  Biso 1.0 Zn
Zn16 1.0000000000 0.8750000000 0.8750000000 0.8750000000  Biso 1.0 Zn
Zr17 1.0000000000 0.6892934039 0.6892934039 0.3107065961  Biso 1.0 Zr
Zr18 1.0000000000 0.3107065961 0.3107065961 0.6892934039  Biso 1.0 Zr
Zr19 1.0000000000 0.3107065961 0.6892934039 0.3107065961  Biso 1.0 Zr
Zr20 1.0000000000 0.6892934039 0.3107065961 0.6892934039  Biso 1.0 Zr
Zr21 1.0000000000 0.6892934039 0.3107065961 0.3107065961  Biso 1.0 Zr
Zr22 1.0000000000 0.3107065961 0.6892934039 0.6892934039  Biso 1.0 Zr
Zr23 1.0000000000 0.0607065961 0.4392934039 0.0607065961  Biso 1.0 Zr
Zr24 1.0000000000 0.4392934039 0.0607065961 0.4392934039  Biso 1.0 Zr
Zr25 1.0000000000 0.4392934039 0.4392934039 0.0607065961  Biso 1.0 Zr
Zr26 1.0000000000 0.0607065961 0.0607065961 0.4392934039  Biso 1.0 Zr
Zr27 1.0000000000 0.0607065961 0.4392934039 0.4392934039  Biso 1.0 Zr
Zr28 1.0000000000 0.4392934039 0.0607065961 0.0607065961  Biso 1.0 Zr
