# AFLOW.org Repositories
# C20   [CUB,CUB,cP20] (STD_PRIM doi:10.10
data_C20
_pd_phase_name C20
_cell_length_a  5.2150231420
_cell_length_b  5.2150231420
_cell_length_c  5.2150231420
_cell_angle_alpha  90.0000000000
_cell_angle_beta  90.0000000000
_cell_angle_gamma  90.0000000000
_symmetry_space_group_name_H-M  'P1'
_symmetry_Int_Tables_Number  1
loop_
_symmetry_equiv_pos_site_id
_symmetry_equiv_pos_as_xyz
  1  x,y,z
loop_
 _atom_site_label
 _atom_site_occupancy
 _atom_site_fract_x
 _atom_site_fract_y
 _atom_site_fract_z
 _atom_site_thermal_displace_type
 _atom_site_B_iso_or_equiv
 _atom_site_type_symbol
C1 1.0000000000 0.8485390637 0.8485390637 0.5000000000  Biso 1.0 C
C2 1.0000000000 0.1514609363 0.1514609363 0.5000000000  Biso 1.0 C
C3 1.0000000000 0.1514609363 0.8485390637 0.5000000000  Biso 1.0 C
C4 1.0000000000 0.8485390637 0.1514609363 0.5000000000  Biso 1.0 C
C5 1.0000000000 0.5000000000 0.8485390637 0.1514609363  Biso 1.0 C
C6 1.0000000000 0.5000000000 0.1514609363 0.8485390637  Biso 1.0 C
C7 1.0000000000 0.5000000000 0.1514609363 0.1514609363  Biso 1.0 C
C8 1.0000000000 0.5000000000 0.8485390637 0.8485390637  Biso 1.0 C
C9 1.0000000000 0.8485390637 0.5000000000 0.1514609363  Biso 1.0 C
C10 1.0000000000 0.1514609363 0.5000000000 0.8485390637  Biso 1.0 C
C11 1.0000000000 0.8485390637 0.5000000000 0.8485390637  Biso 1.0 C
C12 1.0000000000 0.1514609363 0.5000000000 0.1514609363  Biso 1.0 C
C13 1.0000000000 0.7377136853 0.7377136853 0.2622863147  Biso 1.0 C
C14 1.0000000000 0.2622863147 0.2622863147 0.2622863147  Biso 1.0 C
C15 1.0000000000 0.2622863147 0.7377136853 0.7377136853  Biso 1.0 C
C16 1.0000000000 0.7377136853 0.2622863147 0.7377136853  Biso 1.0 C
C17 1.0000000000 0.7377136853 0.7377136853 0.7377136853  Biso 1.0 C
C18 1.0000000000 0.2622863147 0.2622863147 0.7377136853  Biso 1.0 C
C19 1.0000000000 0.7377136853 0.2622863147 0.2622863147  Biso 1.0 C
C20 1.0000000000 0.2622863147 0.7377136853 0.2622863147  Biso 1.0 C
