# AFLOW.org Repositories
# C2Cd1N2   [CUB,CUB,cP10] (STD_PRIM doi:1
data_C2Cd1N2
_pd_phase_name C2Cd1N2
_cell_length_a  6.4566629262
_cell_length_b  6.4566629262
_cell_length_c  6.4566629262
_cell_angle_alpha  90.0000000000
_cell_angle_beta  90.0000000000
_cell_angle_gamma  90.0000000000
_symmetry_space_group_name_H-M  'P1'
_symmetry_Int_Tables_Number  1
loop_
_symmetry_equiv_pos_site_id
_symmetry_equiv_pos_as_xyz
  1  x,y,z
loop_
 _atom_site_label
 _atom_site_occupancy
 _atom_site_fract_x
 _atom_site_fract_y
 _atom_site_fract_z
 _atom_site_thermal_displace_type
 _atom_site_B_iso_or_equiv
 _atom_site_type_symbol
C1 1.0000000000 0.8003531905 0.8003531905 0.1996468095  Biso 1.0 C
C2 1.0000000000 0.1996468095 0.1996468095 0.1996468095  Biso 1.0 C
C3 1.0000000000 0.1996468095 0.8003531905 0.8003531905  Biso 1.0 C
C4 1.0000000000 0.8003531905 0.1996468095 0.8003531905  Biso 1.0 C
Cd5 1.0000000000 0.0000000000 0.0000000000 0.0000000000  Biso 1.0 Cd
Cd6 1.0000000000 0.5000000000 0.5000000000 0.5000000000  Biso 1.0 Cd
N7 1.0000000000 0.6959878753 0.6959878753 0.3040121247  Biso 1.0 N
N8 1.0000000000 0.3040121247 0.3040121247 0.3040121247  Biso 1.0 N
N9 1.0000000000 0.3040121247 0.6959878753 0.6959878753  Biso 1.0 N
N10 1.0000000000 0.6959878753 0.3040121247 0.6959878753  Biso 1.0 N
