# AFLOW.org Repositories
# C2Cs2Pt1   [HEX,HEX,hP5] (STD_PRIM doi:1
data_C2Cs2Pt1
_pd_phase_name C2Cs2Pt1
_cell_length_a  5.7255131113
_cell_length_b  5.7255131113
_cell_length_c  5.2532896268
_cell_angle_alpha  90.0000000000
_cell_angle_beta  90.0000000000
_cell_angle_gamma  120.0000000000
_symmetry_space_group_name_H-M  'P1'
_symmetry_Int_Tables_Number  1
loop_
_symmetry_equiv_pos_site_id
_symmetry_equiv_pos_as_xyz
  1  x,y,z
loop_
 _atom_site_label
 _atom_site_occupancy
 _atom_site_fract_x
 _atom_site_fract_y
 _atom_site_fract_z
 _atom_site_thermal_displace_type
 _atom_site_B_iso_or_equiv
 _atom_site_type_symbol
C1 1.0000000000 0.0000000000 0.0000000000 0.3789684883  Biso 1.0 C
C2 1.0000000000 0.0000000000 0.0000000000 0.6210315117  Biso 1.0 C
Cs3 1.0000000000 0.6666904286 0.3333808572 0.2683932540  Biso 1.0 Cs
Cs4 1.0000000000 0.3333095714 0.6666191428 0.7316067460  Biso 1.0 Cs
Pt5 1.0000000000 0.0000000000 0.0000000000 0.0000000000  Biso 1.0 Pt
