# AFLOW.org Repositories
# C2Gd1Mo1   [ORC,ORC,oP16] (STD_PRIM doi:
data_C2Gd1Mo1
_pd_phase_name C2Gd1Mo1
_cell_length_a  3.4459829456
_cell_length_b  5.7675826138
_cell_length_c  10.8637995707
_cell_angle_alpha  90.0000000000
_cell_angle_beta  90.0000000000
_cell_angle_gamma  90.0000000000
_symmetry_space_group_name_H-M  'P1'
_symmetry_Int_Tables_Number  1
loop_
_symmetry_equiv_pos_site_id
_symmetry_equiv_pos_as_xyz
  1  x,y,z
loop_
 _atom_site_label
 _atom_site_occupancy
 _atom_site_fract_x
 _atom_site_fract_y
 _atom_site_fract_z
 _atom_site_thermal_displace_type
 _atom_site_B_iso_or_equiv
 _atom_site_type_symbol
C1 1.0000000000 0.2500000000 0.1603825249 0.2473986310  Biso 1.0 C
C2 1.0000000000 0.7500000000 0.3396174751 0.7473986310  Biso 1.0 C
C3 1.0000000000 0.7500000000 0.8396174751 0.7526013690  Biso 1.0 C
C4 1.0000000000 0.2500000000 0.6603825249 0.2526013690  Biso 1.0 C
C5 1.0000000000 0.2500000000 0.7182907346 0.9819498019  Biso 1.0 C
C6 1.0000000000 0.7500000000 0.7817092654 0.4819498019  Biso 1.0 C
C7 1.0000000000 0.7500000000 0.2817092654 0.0180501981  Biso 1.0 C
C8 1.0000000000 0.2500000000 0.2182907346 0.5180501981  Biso 1.0 C
Gd9 1.0000000000 0.2500000000 0.0851630069 0.8621829449  Biso 1.0 Gd
Gd10 1.0000000000 0.7500000000 0.4148369931 0.3621829449  Biso 1.0 Gd
Gd11 1.0000000000 0.7500000000 0.9148369931 0.1378170551  Biso 1.0 Gd
Gd12 1.0000000000 0.2500000000 0.5851630069 0.6378170551  Biso 1.0 Gd
Mo13 1.0000000000 0.2500000000 0.4058360499 0.1094134769  Biso 1.0 Mo
Mo14 1.0000000000 0.7500000000 0.0941639501 0.6094134769  Biso 1.0 Mo
Mo15 1.0000000000 0.7500000000 0.5941639501 0.8905865231  Biso 1.0 Mo
Mo16 1.0000000000 0.2500000000 0.9058360499 0.3905865231  Biso 1.0 Mo
