# AFLOW.org Repositories
# C2Ir1   [BCT,BCT2,tI12] (STD_PRIM doi:10
data_C2Ir1
_pd_phase_name C2Ir1
_cell_length_a  4.1381977458
_cell_length_b  4.1381977458
_cell_length_c  4.1381977458
_cell_angle_alpha  113.6851003565
_cell_angle_beta  113.6851003565
_cell_angle_gamma  101.3370788511
_symmetry_space_group_name_H-M  'P1'
_symmetry_Int_Tables_Number  1
loop_
_symmetry_equiv_pos_site_id
_symmetry_equiv_pos_as_xyz
  1  x,y,z
loop_
 _atom_site_label
 _atom_site_occupancy
 _atom_site_fract_x
 _atom_site_fract_y
 _atom_site_fract_z
 _atom_site_thermal_displace_type
 _atom_site_B_iso_or_equiv
 _atom_site_type_symbol
C1 1.0000000000 0.1134001846 0.6134001846 0.7268003693  Biso 1.0 C
C2 1.0000000000 0.8865998154 0.3865998154 0.2731996307  Biso 1.0 C
C3 1.0000000000 0.3865998154 0.1134001846 0.5000000000  Biso 1.0 C
C4 1.0000000000 0.6134001846 0.8865998154 0.5000000000  Biso 1.0 C
Ir5 1.0000000000 0.7500000000 0.7500000000 0.0000000000  Biso 1.0 Ir
Ir6 1.0000000000 0.2500000000 0.2500000000 0.0000000000  Biso 1.0 Ir
