# AFLOW.org Repositories
# C2Na1   [CUB,CUB,cP12] (STD_PRIM doi:10.
data_C2Na1
_pd_phase_name C2Na1
_cell_length_a  4.6140789556
_cell_length_b  4.6140789556
_cell_length_c  4.6140789556
_cell_angle_alpha  90.0000000000
_cell_angle_beta  90.0000000000
_cell_angle_gamma  90.0000000000
_symmetry_space_group_name_H-M  'P1'
_symmetry_Int_Tables_Number  1
loop_
_symmetry_equiv_pos_site_id
_symmetry_equiv_pos_as_xyz
  1  x,y,z
loop_
 _atom_site_label
 _atom_site_occupancy
 _atom_site_fract_x
 _atom_site_fract_y
 _atom_site_fract_z
 _atom_site_thermal_displace_type
 _atom_site_B_iso_or_equiv
 _atom_site_type_symbol
C1 1.0000000000 0.6013541970 0.6013541970 0.3986458030  Biso 1.0 C
C2 1.0000000000 0.8986458030 0.3986458030 0.8986458030  Biso 1.0 C
C3 1.0000000000 0.3986458030 0.1013541970 0.1013541970  Biso 1.0 C
C4 1.0000000000 0.1013541970 0.8986458030 0.6013541970  Biso 1.0 C
C5 1.0000000000 0.3513541970 0.8513541970 0.3513541970  Biso 1.0 C
C6 1.0000000000 0.1486458030 0.1486458030 0.8513541970  Biso 1.0 C
C7 1.0000000000 0.8513541970 0.6486458030 0.6486458030  Biso 1.0 C
C8 1.0000000000 0.6486458030 0.3513541970 0.1486458030  Biso 1.0 C
Na9 1.0000000000 0.8750000000 0.8750000000 0.1250000000  Biso 1.0 Na
Na10 1.0000000000 0.6250000000 0.1250000000 0.6250000000  Biso 1.0 Na
Na11 1.0000000000 0.1250000000 0.3750000000 0.3750000000  Biso 1.0 Na
Na12 1.0000000000 0.3750000000 0.6250000000 0.8750000000  Biso 1.0 Na
