# AFLOW.org Repositories
# C2Na2   [BCT,BCT2,tI32] (STD_PRIM doi:10
data_C2Na2
_pd_phase_name C2Na2
_cell_length_a  7.9169888628
_cell_length_b  7.9169888628
_cell_length_c  7.9169888628
_cell_angle_alpha  129.5121072244
_cell_angle_beta  129.5121072244
_cell_angle_gamma  74.1879553363
_symmetry_space_group_name_H-M  'P1'
_symmetry_Int_Tables_Number  1
loop_
_symmetry_equiv_pos_site_id
_symmetry_equiv_pos_as_xyz
  1  x,y,z
loop_
 _atom_site_label
 _atom_site_occupancy
 _atom_site_fract_x
 _atom_site_fract_y
 _atom_site_fract_z
 _atom_site_thermal_displace_type
 _atom_site_B_iso_or_equiv
 _atom_site_type_symbol
C1 1.0000000000 0.1838609710 0.1838609710 0.8677219421  Biso 1.0 C
C2 1.0000000000 0.3161390290 0.3161390290 0.1322780579  Biso 1.0 C
C3 1.0000000000 0.9338609710 0.5661390290 0.5000000000  Biso 1.0 C
C4 1.0000000000 0.0661390290 0.4338609710 0.5000000000  Biso 1.0 C
C5 1.0000000000 0.5661390290 0.0661390290 0.6322780579  Biso 1.0 C
C6 1.0000000000 0.4338609710 0.9338609710 0.3677219421  Biso 1.0 C
C7 1.0000000000 0.8161390290 0.6838609710 0.0000000000  Biso 1.0 C
C8 1.0000000000 0.6838609710 0.8161390290 0.0000000000  Biso 1.0 C
Na9 1.0000000000 0.3149201087 0.8750000000 0.9399201087  Biso 1.0 Na
Na10 1.0000000000 0.9350798913 0.3750000000 0.0600798913  Biso 1.0 Na
Na11 1.0000000000 0.6250000000 0.1850798913 0.0600798913  Biso 1.0 Na
Na12 1.0000000000 0.1250000000 0.5649201087 0.9399201087  Biso 1.0 Na
Na13 1.0000000000 0.4350798913 0.3750000000 0.5600798913  Biso 1.0 Na
Na14 1.0000000000 0.8149201087 0.8750000000 0.4399201087  Biso 1.0 Na
Na15 1.0000000000 0.1250000000 0.0649201087 0.4399201087  Biso 1.0 Na
Na16 1.0000000000 0.6250000000 0.6850798913 0.5600798913  Biso 1.0 Na
