# AFLOW.org Repositories
# C3Nb4Si1   [HEX,HEX,hP16] (STD_PRIM doi:
data_C3Nb4Si1
_pd_phase_name C3Nb4Si1
_cell_length_a  3.2045656618
_cell_length_b  3.2045656618
_cell_length_c  22.9834090842
_cell_angle_alpha  90.0000000000
_cell_angle_beta  90.0000000000
_cell_angle_gamma  120.0000000000
_symmetry_space_group_name_H-M  'P1'
_symmetry_Int_Tables_Number  1
loop_
_symmetry_equiv_pos_site_id
_symmetry_equiv_pos_as_xyz
  1  x,y,z
loop_
 _atom_site_label
 _atom_site_occupancy
 _atom_site_fract_x
 _atom_site_fract_y
 _atom_site_fract_z
 _atom_site_thermal_displace_type
 _atom_site_B_iso_or_equiv
 _atom_site_type_symbol
C1 1.0000000000 0.0000000000 0.0000000000 0.0000000000  Biso 1.0 C
C2 1.0000000000 0.0000000000 0.0000000000 0.5000000000  Biso 1.0 C
C3 1.0000000000 0.3333336170 0.6666672339 0.1132207707  Biso 1.0 C
C4 1.0000000000 0.6666663830 0.3333327661 0.6132207707  Biso 1.0 C
C5 1.0000000000 0.6666663830 0.3333327661 0.8867792293  Biso 1.0 C
C6 1.0000000000 0.3333336170 0.6666672339 0.3867792293  Biso 1.0 C
Nb7 1.0000000000 0.6666663161 0.3333326322 0.0576648484  Biso 1.0 Nb
Nb8 1.0000000000 0.3333336839 0.6666673678 0.5576648484  Biso 1.0 Nb
Nb9 1.0000000000 0.3333336839 0.6666673678 0.9423351516  Biso 1.0 Nb
Nb10 1.0000000000 0.6666663161 0.3333326322 0.4423351516  Biso 1.0 Nb
Nb11 1.0000000000 0.0000000000 0.0000000000 0.1649330044  Biso 1.0 Nb
Nb12 1.0000000000 0.0000000000 0.0000000000 0.6649330044  Biso 1.0 Nb
Nb13 1.0000000000 0.0000000000 0.0000000000 0.8350669956  Biso 1.0 Nb
Nb14 1.0000000000 0.0000000000 0.0000000000 0.3350669956  Biso 1.0 Nb
Si15 1.0000000000 0.6666678550 0.3333357100 0.2500000000  Biso 1.0 Si
Si16 1.0000000000 0.3333321450 0.6666642900 0.7500000000  Biso 1.0 Si
