# AFLOW.org Repositories
# C8Cs1   [HEX,HEX,hP9] (STD_PRIM doi:10.1
data_C8Cs1
_pd_phase_name C8Cs1
_cell_length_a  4.9746042895
_cell_length_b  4.9746042895
_cell_length_c  6.1051042323
_cell_angle_alpha  90.0000000000
_cell_angle_beta  90.0000000000
_cell_angle_gamma  120.0000000000
_symmetry_space_group_name_H-M  'P1'
_symmetry_Int_Tables_Number  1
loop_
_symmetry_equiv_pos_site_id
_symmetry_equiv_pos_as_xyz
  1  x,y,z
loop_
 _atom_site_label
 _atom_site_occupancy
 _atom_site_fract_x
 _atom_site_fract_y
 _atom_site_fract_z
 _atom_site_thermal_displace_type
 _atom_site_B_iso_or_equiv
 _atom_site_type_symbol
C1 1.0000000000 0.1665442361 0.8333837771 0.0000000000  Biso 1.0 C
C2 1.0000000000 0.6669133768 0.8333999168 0.0000000000  Biso 1.0 C
C3 1.0000000000 0.1665617847 0.3330402145 0.0000000000  Biso 1.0 C
C4 1.0000000000 0.8334983738 0.1665547925 0.0000000000  Biso 1.0 C
C5 1.0000000000 0.3331322679 0.1665414637 0.0000000000  Biso 1.0 C
C6 1.0000000000 0.8334790197 0.6669014626 0.0000000000  Biso 1.0 C
C7 1.0000000000 0.3333763110 0.6666730019 0.0000000000  Biso 1.0 C
C8 1.0000000000 0.6666730680 0.3332691506 0.0000000000  Biso 1.0 C
Cs9 1.0000000000 0.0000000000 0.0000000000 0.5000000000  Biso 1.0 Cs
