# AFLOW.org Repositories
# Ca1Cd2   [HEX,HEX,hP12] (STD_PRIM doi:10
data_Ca1Cd2
_pd_phase_name Ca1Cd2
_cell_length_a  6.0507956404
_cell_length_b  6.0507956404
_cell_length_c  9.6680920786
_cell_angle_alpha  90.0000000000
_cell_angle_beta  90.0000000000
_cell_angle_gamma  120.0000000000
_symmetry_space_group_name_H-M  'P1'
_symmetry_Int_Tables_Number  1
loop_
_symmetry_equiv_pos_site_id
_symmetry_equiv_pos_as_xyz
  1  x,y,z
loop_
 _atom_site_label
 _atom_site_occupancy
 _atom_site_fract_x
 _atom_site_fract_y
 _atom_site_fract_z
 _atom_site_thermal_displace_type
 _atom_site_B_iso_or_equiv
 _atom_site_type_symbol
Ca1 1.0000000000 0.3333701962 0.6666850981 0.0602719827  Biso 1.0 Ca
Ca2 1.0000000000 0.6666298038 0.3333149019 0.5602719827  Biso 1.0 Ca
Ca3 1.0000000000 0.6666298038 0.3333149019 0.9397280173  Biso 1.0 Ca
Ca4 1.0000000000 0.3333701962 0.6666850981 0.4397280173  Biso 1.0 Ca
Cd5 1.0000000000 0.0000000000 0.0000000000 0.0000000000  Biso 1.0 Cd
Cd6 1.0000000000 0.0000000000 0.0000000000 0.5000000000  Biso 1.0 Cd
Cd7 1.0000000000 0.8295752167 0.6591380957 0.2500000000  Biso 1.0 Cd
Cd8 1.0000000000 0.3408590799 0.1704295399 0.2500000000  Biso 1.0 Cd
Cd9 1.0000000000 0.8295752167 0.1704371210 0.2500000000  Biso 1.0 Cd
Cd10 1.0000000000 0.1704247833 0.3408619043 0.7500000000  Biso 1.0 Cd
Cd11 1.0000000000 0.6591409201 0.8295704601 0.7500000000  Biso 1.0 Cd
Cd12 1.0000000000 0.1704247833 0.8295628790 0.7500000000  Biso 1.0 Cd
