# AFLOW.org Repositories
# Ca1Cd1Sn1   [HEX,HEX,hP9] (STD_PRIM doi:
data_Ca1Cd1Sn1
_pd_phase_name Ca1Cd1Sn1
_cell_length_a  7.7518782253
_cell_length_b  7.7518782253
_cell_length_c  4.7163273806
_cell_angle_alpha  90.0000000000
_cell_angle_beta  90.0000000000
_cell_angle_gamma  120.0000000000
_symmetry_space_group_name_H-M  'P1'
_symmetry_Int_Tables_Number  1
loop_
_symmetry_equiv_pos_site_id
_symmetry_equiv_pos_as_xyz
  1  x,y,z
loop_
 _atom_site_label
 _atom_site_occupancy
 _atom_site_fract_x
 _atom_site_fract_y
 _atom_site_fract_z
 _atom_site_thermal_displace_type
 _atom_site_B_iso_or_equiv
 _atom_site_type_symbol
Ca1 1.0000000000 0.4230375383 0.4230375383 0.5000000000  Biso 1.0 Ca
Ca2 1.0000000000 0.5769619747 0.0000000000 0.5000000000  Biso 1.0 Ca
Ca3 1.0000000000 0.0000000000 0.5769647785 0.5000000000  Biso 1.0 Ca
Cd4 1.0000000000 0.7471006379 0.7471006379 0.0000000000  Biso 1.0 Cd
Cd5 1.0000000000 0.2529078643 0.0000000000 0.0000000000  Biso 1.0 Cd
Cd6 1.0000000000 0.0000000000 0.2529110049 0.0000000000  Biso 1.0 Cd
Sn7 1.0000000000 0.0000000000 0.0000000000 0.5000000000  Biso 1.0 Sn
Sn8 1.0000000000 0.3333407771 0.6666696786 0.0000000000  Biso 1.0 Sn
Sn9 1.0000000000 0.6666592229 0.3333289015 0.0000000000  Biso 1.0 Sn
