# AFLOW.org Repositories
# Ca1Ga2   [HEX,HEX,hP6] (STD_PRIM doi:10.
data_Ca1Ga2
_pd_phase_name Ca1Ga2
_cell_length_a  4.4835942447
_cell_length_b  4.4835942447
_cell_length_c  7.3416462277
_cell_angle_alpha  90.0000000000
_cell_angle_beta  90.0000000000
_cell_angle_gamma  120.0000000000
_symmetry_space_group_name_H-M  'P1'
_symmetry_Int_Tables_Number  1
loop_
_symmetry_equiv_pos_site_id
_symmetry_equiv_pos_as_xyz
  1  x,y,z
loop_
 _atom_site_label
 _atom_site_occupancy
 _atom_site_fract_x
 _atom_site_fract_y
 _atom_site_fract_z
 _atom_site_thermal_displace_type
 _atom_site_B_iso_or_equiv
 _atom_site_type_symbol
Ca1 1.0000000000 0.0000000000 0.0000000000 0.2500000000  Biso 1.0 Ca
Ca2 1.0000000000 0.0000000000 0.0000000000 0.7500000000  Biso 1.0 Ca
Ga3 1.0000000000 0.6666781973 0.3333563946 0.0425691937  Biso 1.0 Ga
Ga4 1.0000000000 0.3333218027 0.6666436054 0.5425691937  Biso 1.0 Ga
Ga5 1.0000000000 0.3333218027 0.6666436054 0.9574308063  Biso 1.0 Ga
Ga6 1.0000000000 0.6666781973 0.3333563946 0.4574308063  Biso 1.0 Ga
