# AFLOW.org Repositories
# Ca1Ge2Ir2   [BCT,BCT2,tI10] (STD_PRIM do
data_Ca1Ge2Ir2
_pd_phase_name Ca1Ge2Ir2
_cell_length_a  5.9779212702
_cell_length_b  5.9779212702
_cell_length_c  5.9779212702
_cell_angle_alpha  139.0715029405
_cell_angle_beta  139.0715029405
_cell_angle_gamma  59.2658411433
_symmetry_space_group_name_H-M  'P1'
_symmetry_Int_Tables_Number  1
loop_
_symmetry_equiv_pos_site_id
_symmetry_equiv_pos_as_xyz
  1  x,y,z
loop_
 _atom_site_label
 _atom_site_occupancy
 _atom_site_fract_x
 _atom_site_fract_y
 _atom_site_fract_z
 _atom_site_thermal_displace_type
 _atom_site_B_iso_or_equiv
 _atom_site_type_symbol
Ca1 1.0000000000 0.0000000000 0.0000000000 0.0000000000  Biso 1.0 Ca
Ge2 1.0000000000 0.6253627893 0.6253627893 0.0000000000  Biso 1.0 Ge
Ge3 1.0000000000 0.3746372107 0.3746372107 0.0000000000  Biso 1.0 Ge
Ir4 1.0000000000 0.2500000000 0.7500000000 0.5000000000  Biso 1.0 Ir
Ir5 1.0000000000 0.7500000000 0.2500000000 0.5000000000  Biso 1.0 Ir
