# AFLOW.org Repositories
# Ca1Li1N1   [ORC,ORC,oP12] (STD_PRIM doi:
data_Ca1Li1N1
_pd_phase_name Ca1Li1N1
_cell_length_a  3.6700499665
_cell_length_b  5.5553300223
_cell_length_c  8.5047564963
_cell_angle_alpha  90.0000000000
_cell_angle_beta  90.0000000000
_cell_angle_gamma  90.0000000000
_symmetry_space_group_name_H-M  'P1'
_symmetry_Int_Tables_Number  1
loop_
_symmetry_equiv_pos_site_id
_symmetry_equiv_pos_as_xyz
  1  x,y,z
loop_
 _atom_site_label
 _atom_site_occupancy
 _atom_site_fract_x
 _atom_site_fract_y
 _atom_site_fract_z
 _atom_site_thermal_displace_type
 _atom_site_B_iso_or_equiv
 _atom_site_type_symbol
Ca1 1.0000000000 0.7500000000 0.9736481726 0.1563430369  Biso 1.0 Ca
Ca2 1.0000000000 0.2500000000 0.4736481726 0.3436569631  Biso 1.0 Ca
Ca3 1.0000000000 0.2500000000 0.0263518274 0.8436569631  Biso 1.0 Ca
Ca4 1.0000000000 0.7500000000 0.5263518274 0.6563430369  Biso 1.0 Ca
Li5 1.0000000000 0.7500000000 0.4255275826 0.0474783024  Biso 1.0 Li
Li6 1.0000000000 0.2500000000 0.9255275826 0.4525216976  Biso 1.0 Li
Li7 1.0000000000 0.2500000000 0.5744724174 0.9525216976  Biso 1.0 Li
Li8 1.0000000000 0.7500000000 0.0744724174 0.5474783024  Biso 1.0 Li
N9 1.0000000000 0.7500000000 0.7591822469 0.4072778316  Biso 1.0 N
N10 1.0000000000 0.2500000000 0.2591822469 0.0927221684  Biso 1.0 N
N11 1.0000000000 0.2500000000 0.2408177531 0.5927221684  Biso 1.0 N
N12 1.0000000000 0.7500000000 0.7408177531 0.9072778316  Biso 1.0 N
