# AFLOW.org Repositories
# Ca1O4Tl2   [ORCC,ORCC,oS28] (STD_PRIM do
data_Ca1O4Tl2
_pd_phase_name Ca1O4Tl2
_cell_length_a  5.8563346603
_cell_length_b  5.8563346603
_cell_length_c  10.6559726367
_cell_angle_alpha  90.0000000000
_cell_angle_beta  90.0000000000
_cell_angle_gamma  146.4419537621
_symmetry_space_group_name_H-M  'P1'
_symmetry_Int_Tables_Number  1
loop_
_symmetry_equiv_pos_site_id
_symmetry_equiv_pos_as_xyz
  1  x,y,z
loop_
 _atom_site_label
 _atom_site_occupancy
 _atom_site_fract_x
 _atom_site_fract_y
 _atom_site_fract_z
 _atom_site_thermal_displace_type
 _atom_site_B_iso_or_equiv
 _atom_site_type_symbol
Ca1 1.0000000000 0.1082166334 0.8917833666 0.7500000000  Biso 1.0 Ca
Ca2 1.0000000000 0.8917833666 0.1082166334 0.2500000000  Biso 1.0 Ca
O3 1.0000000000 0.2803173988 0.7196826012 0.3825933802  Biso 1.0 O
O4 1.0000000000 0.7196826012 0.2803173988 0.8825933802  Biso 1.0 O
O5 1.0000000000 0.2803173988 0.7196826012 0.1174066198  Biso 1.0 O
O6 1.0000000000 0.7196826012 0.2803173988 0.6174066198  Biso 1.0 O
O7 1.0000000000 0.0000000000 0.0000000000 0.0000000000  Biso 1.0 O
O8 1.0000000000 0.0000000000 0.0000000000 0.5000000000  Biso 1.0 O
O9 1.0000000000 0.4631677834 0.5368322166 0.7500000000  Biso 1.0 O
O10 1.0000000000 0.5368322166 0.4631677834 0.2500000000  Biso 1.0 O
Tl11 1.0000000000 0.3653858041 0.6346141959 0.9279628389  Biso 1.0 Tl
Tl12 1.0000000000 0.6346141959 0.3653858041 0.4279628389  Biso 1.0 Tl
Tl13 1.0000000000 0.3653858041 0.6346141959 0.5720371611  Biso 1.0 Tl
Tl14 1.0000000000 0.6346141959 0.3653858041 0.0720371611  Biso 1.0 Tl
