# AFLOW.org Repositories
# Ca1P2Pd2   [BCT,BCT2,tI10] (STD_PRIM doi
data_Ca1P2Pd2
_pd_phase_name Ca1P2Pd2
_cell_length_a  5.6702389575
_cell_length_b  5.6702389575
_cell_length_c  5.6702389575
_cell_angle_alpha  136.8587772667
_cell_angle_beta  136.8587772667
_cell_angle_gamma  62.6554095460
_symmetry_space_group_name_H-M  'P1'
_symmetry_Int_Tables_Number  1
loop_
_symmetry_equiv_pos_site_id
_symmetry_equiv_pos_as_xyz
  1  x,y,z
loop_
 _atom_site_label
 _atom_site_occupancy
 _atom_site_fract_x
 _atom_site_fract_y
 _atom_site_fract_z
 _atom_site_thermal_displace_type
 _atom_site_B_iso_or_equiv
 _atom_site_type_symbol
Ca1 1.0000000000 0.0000000000 0.0000000000 0.0000000000  Biso 1.0 Ca
P2 1.0000000000 0.3880899395 0.3880899395 0.0000000000  Biso 1.0 P
P3 1.0000000000 0.6119100605 0.6119100605 0.0000000000  Biso 1.0 P
Pd4 1.0000000000 0.2500000000 0.7500000000 0.5000000000  Biso 1.0 Pd
Pd5 1.0000000000 0.7500000000 0.2500000000 0.5000000000  Biso 1.0 Pd
