# AFLOW.org Repositories
# Ca3Ge13Ir4   [CUB,CUB,cP40] (STD_PRIM do
data_Ca3Ge13Ir4
_pd_phase_name Ca3Ge13Ir4
_cell_length_a  9.0688054642
_cell_length_b  9.0688054642
_cell_length_c  9.0688054642
_cell_angle_alpha  90.0000000000
_cell_angle_beta  90.0000000000
_cell_angle_gamma  90.0000000000
_symmetry_space_group_name_H-M  'P1'
_symmetry_Int_Tables_Number  1
loop_
_symmetry_equiv_pos_site_id
_symmetry_equiv_pos_as_xyz
  1  x,y,z
loop_
 _atom_site_label
 _atom_site_occupancy
 _atom_site_fract_x
 _atom_site_fract_y
 _atom_site_fract_z
 _atom_site_thermal_displace_type
 _atom_site_B_iso_or_equiv
 _atom_site_type_symbol
Ca1 1.0000000000 0.7500000000 0.0000000000 0.5000000000  Biso 1.0 Ca
Ca2 1.0000000000 0.2500000000 0.0000000000 0.5000000000  Biso 1.0 Ca
Ca3 1.0000000000 0.5000000000 0.7500000000 0.0000000000  Biso 1.0 Ca
Ca4 1.0000000000 0.5000000000 0.2500000000 0.0000000000  Biso 1.0 Ca
Ca5 1.0000000000 0.0000000000 0.5000000000 0.2500000000  Biso 1.0 Ca
Ca6 1.0000000000 0.0000000000 0.5000000000 0.7500000000  Biso 1.0 Ca
Ge7 1.0000000000 0.0000000000 0.0000000000 0.0000000000  Biso 1.0 Ge
Ge8 1.0000000000 0.5000000000 0.5000000000 0.5000000000  Biso 1.0 Ge
Ge9 1.0000000000 0.0000000000 0.8555275473 0.2991059117  Biso 1.0 Ge
Ge10 1.0000000000 0.0000000000 0.1444724527 0.2991059117  Biso 1.0 Ge
Ge11 1.0000000000 0.0000000000 0.8555275473 0.7008940883  Biso 1.0 Ge
Ge12 1.0000000000 0.0000000000 0.1444724527 0.7008940883  Biso 1.0 Ge
Ge13 1.0000000000 0.7008940883 0.0000000000 0.1444724527  Biso 1.0 Ge
Ge14 1.0000000000 0.7008940883 0.0000000000 0.8555275473  Biso 1.0 Ge
Ge15 1.0000000000 0.2991059117 0.0000000000 0.1444724527  Biso 1.0 Ge
Ge16 1.0000000000 0.2991059117 0.0000000000 0.8555275473  Biso 1.0 Ge
Ge17 1.0000000000 0.8555275473 0.7008940883 0.0000000000  Biso 1.0 Ge
Ge18 1.0000000000 0.1444724527 0.7008940883 0.0000000000  Biso 1.0 Ge
Ge19 1.0000000000 0.8555275473 0.2991059117 0.0000000000  Biso 1.0 Ge
Ge20 1.0000000000 0.1444724527 0.2991059117 0.0000000000  Biso 1.0 Ge
Ge21 1.0000000000 0.3555275473 0.5000000000 0.2008940883  Biso 1.0 Ge
Ge22 1.0000000000 0.6444724527 0.5000000000 0.2008940883  Biso 1.0 Ge
Ge23 1.0000000000 0.3555275473 0.5000000000 0.7991059117  Biso 1.0 Ge
Ge24 1.0000000000 0.6444724527 0.5000000000 0.7991059117  Biso 1.0 Ge
Ge25 1.0000000000 0.5000000000 0.2008940883 0.3555275473  Biso 1.0 Ge
Ge26 1.0000000000 0.5000000000 0.2008940883 0.6444724527  Biso 1.0 Ge
Ge27 1.0000000000 0.5000000000 0.7991059117 0.3555275473  Biso 1.0 Ge
Ge28 1.0000000000 0.5000000000 0.7991059117 0.6444724527  Biso 1.0 Ge
Ge29 1.0000000000 0.2008940883 0.3555275473 0.5000000000  Biso 1.0 Ge
Ge30 1.0000000000 0.2008940883 0.6444724527 0.5000000000  Biso 1.0 Ge
Ge31 1.0000000000 0.7991059117 0.3555275473 0.5000000000  Biso 1.0 Ge
Ge32 1.0000000000 0.7991059117 0.6444724527 0.5000000000  Biso 1.0 Ge
Ir33 1.0000000000 0.7500000000 0.7500000000 0.2500000000  Biso 1.0 Ir
Ir34 1.0000000000 0.2500000000 0.2500000000 0.2500000000  Biso 1.0 Ir
Ir35 1.0000000000 0.2500000000 0.7500000000 0.7500000000  Biso 1.0 Ir
Ir36 1.0000000000 0.7500000000 0.2500000000 0.7500000000  Biso 1.0 Ir
Ir37 1.0000000000 0.2500000000 0.2500000000 0.7500000000  Biso 1.0 Ir
Ir38 1.0000000000 0.7500000000 0.7500000000 0.7500000000  Biso 1.0 Ir
Ir39 1.0000000000 0.7500000000 0.2500000000 0.2500000000  Biso 1.0 Ir
Ir40 1.0000000000 0.2500000000 0.7500000000 0.2500000000  Biso 1.0 Ir
