# AFLOW.org Repositories
# Ca5P8   [MCLC,MCLC3,mS26] (STD_PRIM doi:
data_Ca5P8
_pd_phase_name Ca5P8
_cell_length_a  6.8952836159
_cell_length_b  6.8952836159
_cell_length_c  7.5095574531
_cell_angle_alpha  80.9786796836
_cell_angle_beta  80.9786796836
_cell_angle_gamma  119.6651171561
_symmetry_space_group_name_H-M  'P1'
_symmetry_Int_Tables_Number  1
loop_
_symmetry_equiv_pos_site_id
_symmetry_equiv_pos_as_xyz
  1  x,y,z
loop_
 _atom_site_label
 _atom_site_occupancy
 _atom_site_fract_x
 _atom_site_fract_y
 _atom_site_fract_z
 _atom_site_thermal_displace_type
 _atom_site_B_iso_or_equiv
 _atom_site_type_symbol
Ca1 1.0000000000 0.5000000000 0.5000000000 0.5000000000  Biso 1.0 Ca
Ca2 1.0000000000 0.1750977126 0.8249022874 0.5000000000  Biso 1.0 Ca
Ca3 1.0000000000 0.8249022874 0.1750977126 0.5000000000  Biso 1.0 Ca
Ca4 1.0000000000 0.6653912867 0.3346087133 0.0000000000  Biso 1.0 Ca
Ca5 1.0000000000 0.3346087133 0.6653912867 0.0000000000  Biso 1.0 Ca
P6 1.0000000000 0.2223809721 0.2223809721 0.2422827350  Biso 1.0 P
P7 1.0000000000 0.7776190279 0.7776190279 0.7577172650  Biso 1.0 P
P8 1.0000000000 0.9210794670 0.6152621310 0.2399280437  Biso 1.0 P
P9 1.0000000000 0.3847378690 0.0789205330 0.7600719563  Biso 1.0 P
P10 1.0000000000 0.0789205330 0.3847378690 0.7600719563  Biso 1.0 P
P11 1.0000000000 0.6152621310 0.9210794670 0.2399280437  Biso 1.0 P
P12 1.0000000000 0.9473687715 0.9473687715 0.1635756390  Biso 1.0 P
P13 1.0000000000 0.0526312285 0.0526312285 0.8364243610  Biso 1.0 P
