# AFLOW.org Repositories
# Cd11Na2   [CUB,CUB,cP39] (STD_PRIM doi:1
data_Cd11Na2
_pd_phase_name Cd11Na2
_cell_length_a  9.8083889005
_cell_length_b  9.8083889005
_cell_length_c  9.8083889005
_cell_angle_alpha  90.0000000000
_cell_angle_beta  90.0000000000
_cell_angle_gamma  90.0000000000
_symmetry_space_group_name_H-M  'P1'
_symmetry_Int_Tables_Number  1
loop_
_symmetry_equiv_pos_site_id
_symmetry_equiv_pos_as_xyz
  1  x,y,z
loop_
 _atom_site_label
 _atom_site_occupancy
 _atom_site_fract_x
 _atom_site_fract_y
 _atom_site_fract_z
 _atom_site_thermal_displace_type
 _atom_site_B_iso_or_equiv
 _atom_site_type_symbol
Cd1 1.0000000000 0.0000000000 0.0000000000 0.0000000000  Biso 1.0 Cd
Cd2 1.0000000000 0.0000000000 0.1560758670 0.2672327129  Biso 1.0 Cd
Cd3 1.0000000000 0.0000000000 0.8439241330 0.2672327129  Biso 1.0 Cd
Cd4 1.0000000000 0.0000000000 0.1560758670 0.7327672871  Biso 1.0 Cd
Cd5 1.0000000000 0.0000000000 0.8439241330 0.7327672871  Biso 1.0 Cd
Cd6 1.0000000000 0.2672327129 0.0000000000 0.1560758670  Biso 1.0 Cd
Cd7 1.0000000000 0.2672327129 0.0000000000 0.8439241330  Biso 1.0 Cd
Cd8 1.0000000000 0.7327672871 0.0000000000 0.1560758670  Biso 1.0 Cd
Cd9 1.0000000000 0.7327672871 0.0000000000 0.8439241330  Biso 1.0 Cd
Cd10 1.0000000000 0.1560758670 0.2672327129 0.0000000000  Biso 1.0 Cd
Cd11 1.0000000000 0.8439241330 0.2672327129 0.0000000000  Biso 1.0 Cd
Cd12 1.0000000000 0.1560758670 0.7327672871 0.0000000000  Biso 1.0 Cd
Cd13 1.0000000000 0.8439241330 0.7327672871 0.0000000000  Biso 1.0 Cd
Cd14 1.0000000000 0.2685827444 0.5000000000 0.5000000000  Biso 1.0 Cd
Cd15 1.0000000000 0.7314172556 0.5000000000 0.5000000000  Biso 1.0 Cd
Cd16 1.0000000000 0.5000000000 0.2685827444 0.5000000000  Biso 1.0 Cd
Cd17 1.0000000000 0.5000000000 0.7314172556 0.5000000000  Biso 1.0 Cd
Cd18 1.0000000000 0.5000000000 0.5000000000 0.2685827444  Biso 1.0 Cd
Cd19 1.0000000000 0.5000000000 0.5000000000 0.7314172556  Biso 1.0 Cd
Cd20 1.0000000000 0.3405012367 0.5000000000 0.0000000000  Biso 1.0 Cd
Cd21 1.0000000000 0.6594987633 0.5000000000 0.0000000000  Biso 1.0 Cd
Cd22 1.0000000000 0.0000000000 0.3405012367 0.5000000000  Biso 1.0 Cd
Cd23 1.0000000000 0.0000000000 0.6594987633 0.5000000000  Biso 1.0 Cd
Cd24 1.0000000000 0.5000000000 0.0000000000 0.3405012367  Biso 1.0 Cd
Cd25 1.0000000000 0.5000000000 0.0000000000 0.6594987633  Biso 1.0 Cd
Cd26 1.0000000000 0.2811918417 0.2811918417 0.2811918417  Biso 1.0 Cd
Cd27 1.0000000000 0.7188081583 0.7188081583 0.2811918417  Biso 1.0 Cd
Cd28 1.0000000000 0.7188081583 0.2811918417 0.7188081583  Biso 1.0 Cd
Cd29 1.0000000000 0.2811918417 0.7188081583 0.7188081583  Biso 1.0 Cd
Cd30 1.0000000000 0.7188081583 0.7188081583 0.7188081583  Biso 1.0 Cd
Cd31 1.0000000000 0.2811918417 0.2811918417 0.7188081583  Biso 1.0 Cd
Cd32 1.0000000000 0.2811918417 0.7188081583 0.2811918417  Biso 1.0 Cd
Cd33 1.0000000000 0.7188081583 0.2811918417 0.2811918417  Biso 1.0 Cd
Na34 1.0000000000 0.1976160082 0.0000000000 0.5000000000  Biso 1.0 Na
Na35 1.0000000000 0.8023839918 0.0000000000 0.5000000000  Biso 1.0 Na
Na36 1.0000000000 0.5000000000 0.1976160082 0.0000000000  Biso 1.0 Na
Na37 1.0000000000 0.5000000000 0.8023839918 0.0000000000  Biso 1.0 Na
Na38 1.0000000000 0.0000000000 0.5000000000 0.1976160082  Biso 1.0 Na
Na39 1.0000000000 0.0000000000 0.5000000000 0.8023839918  Biso 1.0 Na
