# AFLOW.org Repositories
# Cd1Dy4Rh1   [FCC,FCC,cF96] (STD_PRIM doi
data_Cd1Dy4Rh1
_pd_phase_name Cd1Dy4Rh1
_cell_length_a  9.5931938979
_cell_length_b  9.5931938979
_cell_length_c  9.5931938979
_cell_angle_alpha  60.0000000000
_cell_angle_beta  60.0000000000
_cell_angle_gamma  60.0000000000
_symmetry_space_group_name_H-M  'P1'
_symmetry_Int_Tables_Number  1
loop_
_symmetry_equiv_pos_site_id
_symmetry_equiv_pos_as_xyz
  1  x,y,z
loop_
 _atom_site_label
 _atom_site_occupancy
 _atom_site_fract_x
 _atom_site_fract_y
 _atom_site_fract_z
 _atom_site_thermal_displace_type
 _atom_site_B_iso_or_equiv
 _atom_site_type_symbol
Cd1 1.0000000000 0.7429170582 0.4190276473 0.4190276473  Biso 1.0 Cd
Cd2 1.0000000000 0.4190276473 0.7429170582 0.4190276473  Biso 1.0 Cd
Cd3 1.0000000000 0.4190276473 0.4190276473 0.4190276473  Biso 1.0 Cd
Cd4 1.0000000000 0.4190276473 0.4190276473 0.7429170582  Biso 1.0 Cd
Dy5 1.0000000000 0.0644825084 0.4355174916 0.0644825084  Biso 1.0 Dy
Dy6 1.0000000000 0.4355174916 0.0644825084 0.4355174916  Biso 1.0 Dy
Dy7 1.0000000000 0.0644825084 0.4355174916 0.4355174916  Biso 1.0 Dy
Dy8 1.0000000000 0.4355174916 0.0644825084 0.0644825084  Biso 1.0 Dy
Dy9 1.0000000000 0.0644825084 0.0644825084 0.4355174916  Biso 1.0 Dy
Dy10 1.0000000000 0.4355174916 0.4355174916 0.0644825084  Biso 1.0 Dy
Dy11 1.0000000000 0.1889345478 0.8110654522 0.1889345478  Biso 1.0 Dy
Dy12 1.0000000000 0.8110654522 0.1889345478 0.8110654522  Biso 1.0 Dy
Dy13 1.0000000000 0.1889345478 0.8110654522 0.8110654522  Biso 1.0 Dy
Dy14 1.0000000000 0.8110654522 0.1889345478 0.1889345478  Biso 1.0 Dy
Dy15 1.0000000000 0.1889345478 0.1889345478 0.8110654522  Biso 1.0 Dy
Dy16 1.0000000000 0.8110654522 0.8110654522 0.1889345478  Biso 1.0 Dy
Dy17 1.0000000000 0.0468298890 0.6510567037 0.6510567037  Biso 1.0 Dy
Dy18 1.0000000000 0.6510567037 0.0468298890 0.6510567037  Biso 1.0 Dy
Dy19 1.0000000000 0.6510567037 0.6510567037 0.6510567037  Biso 1.0 Dy
Dy20 1.0000000000 0.6510567037 0.6510567037 0.0468298890  Biso 1.0 Dy
Rh21 1.0000000000 0.4273042150 0.8575652617 0.8575652617  Biso 1.0 Rh
Rh22 1.0000000000 0.8575652617 0.4273042150 0.8575652617  Biso 1.0 Rh
Rh23 1.0000000000 0.8575652617 0.8575652617 0.8575652617  Biso 1.0 Rh
Rh24 1.0000000000 0.8575652617 0.8575652617 0.4273042150  Biso 1.0 Rh
