# AFLOW.org Repositories
# Cd1In2O4   [BCT,BCT2,tI28] (STD_PRIM doi
data_Cd1In2O4
_pd_phase_name Cd1In2O4
_cell_length_a  6.5700683296
_cell_length_b  6.5700683296
_cell_length_c  6.5700683296
_cell_angle_alpha  120.1051751127
_cell_angle_beta  120.1051751127
_cell_angle_gamma  89.8179276895
_symmetry_space_group_name_H-M  'P1'
_symmetry_Int_Tables_Number  1
loop_
_symmetry_equiv_pos_site_id
_symmetry_equiv_pos_as_xyz
  1  x,y,z
loop_
 _atom_site_label
 _atom_site_occupancy
 _atom_site_fract_x
 _atom_site_fract_y
 _atom_site_fract_z
 _atom_site_thermal_displace_type
 _atom_site_B_iso_or_equiv
 _atom_site_type_symbol
Cd1 1.0000000000 0.0000000000 0.0000000000 0.0000000000  Biso 1.0 Cd
Cd2 1.0000000000 0.2500000000 0.7500000000 0.5000000000  Biso 1.0 Cd
In3 1.0000000000 0.6250000000 0.8750000000 0.2500000000  Biso 1.0 In
In4 1.0000000000 0.6250000000 0.3750000000 0.7500000000  Biso 1.0 In
In5 1.0000000000 0.1250000000 0.3750000000 0.7500000000  Biso 1.0 In
In6 1.0000000000 0.6250000000 0.3750000000 0.2500000000  Biso 1.0 In
O7 1.0000000000 0.3889242569 0.1651518310 0.7762275741  Biso 1.0 O
O8 1.0000000000 0.3889242569 0.6126966829 0.2237724259  Biso 1.0 O
O9 1.0000000000 0.4151518310 0.1389242569 0.2762275741  Biso 1.0 O
O10 1.0000000000 0.8626966829 0.1389242569 0.7237724259  Biso 1.0 O
O11 1.0000000000 0.8610757431 0.1373033171 0.2762275741  Biso 1.0 O
O12 1.0000000000 0.8610757431 0.5848481690 0.7237724259  Biso 1.0 O
O13 1.0000000000 0.8348481690 0.6110757431 0.2237724259  Biso 1.0 O
O14 1.0000000000 0.3873033171 0.6110757431 0.7762275741  Biso 1.0 O
