# AFLOW.org Repositories
# Cd1In2S4   [FCC,FCC,cF56] (STD_PRIM doi:
data_Cd1In2S4
_pd_phase_name Cd1In2S4
_cell_length_a  7.7662061839
_cell_length_b  7.7662061839
_cell_length_c  7.7662061839
_cell_angle_alpha  60.0000000000
_cell_angle_beta  60.0000000000
_cell_angle_gamma  60.0000000000
_symmetry_space_group_name_H-M  'P1'
_symmetry_Int_Tables_Number  1
loop_
_symmetry_equiv_pos_site_id
_symmetry_equiv_pos_as_xyz
  1  x,y,z
loop_
 _atom_site_label
 _atom_site_occupancy
 _atom_site_fract_x
 _atom_site_fract_y
 _atom_site_fract_z
 _atom_site_thermal_displace_type
 _atom_site_B_iso_or_equiv
 _atom_site_type_symbol
Cd1 1.0000000000 0.0000000000 0.0000000000 0.0000000000  Biso 1.0 Cd
Cd2 1.0000000000 0.7500000000 0.7500000000 0.7500000000  Biso 1.0 Cd
In3 1.0000000000 0.3750000000 0.3750000000 0.8750000000  Biso 1.0 In
In4 1.0000000000 0.3750000000 0.3750000000 0.3750000000  Biso 1.0 In
In5 1.0000000000 0.3750000000 0.8750000000 0.3750000000  Biso 1.0 In
In6 1.0000000000 0.8750000000 0.3750000000 0.3750000000  Biso 1.0 In
S7 1.0000000000 0.6150338029 0.6150338029 0.1548985914  Biso 1.0 S
S8 1.0000000000 0.6150338029 0.6150338029 0.6150338029  Biso 1.0 S
S9 1.0000000000 0.6150338029 0.1548985914 0.6150338029  Biso 1.0 S
S10 1.0000000000 0.1548985914 0.6150338029 0.6150338029  Biso 1.0 S
S11 1.0000000000 0.1349661971 0.1349661971 0.1349661971  Biso 1.0 S
S12 1.0000000000 0.1349661971 0.1349661971 0.5951014086  Biso 1.0 S
S13 1.0000000000 0.1349661971 0.5951014086 0.1349661971  Biso 1.0 S
S14 1.0000000000 0.5951014086 0.1349661971 0.1349661971  Biso 1.0 S
