# AFLOW.org Repositories
# Cd1Se4Yb2   [FCC,FCC,cF56] (STD_PRIM doi
data_Cd1Se4Yb2
_pd_phase_name Cd1Se4Yb2
_cell_length_a  8.3677086446
_cell_length_b  8.3677086446
_cell_length_c  8.3677086446
_cell_angle_alpha  60.0000000000
_cell_angle_beta  60.0000000000
_cell_angle_gamma  60.0000000000
_symmetry_space_group_name_H-M  'P1'
_symmetry_Int_Tables_Number  1
loop_
_symmetry_equiv_pos_site_id
_symmetry_equiv_pos_as_xyz
  1  x,y,z
loop_
 _atom_site_label
 _atom_site_occupancy
 _atom_site_fract_x
 _atom_site_fract_y
 _atom_site_fract_z
 _atom_site_thermal_displace_type
 _atom_site_B_iso_or_equiv
 _atom_site_type_symbol
Cd1 1.0000000000 0.0000000000 0.0000000000 0.0000000000  Biso 1.0 Cd
Cd2 1.0000000000 0.2500000000 0.2500000000 0.2500000000  Biso 1.0 Cd
Se3 1.0000000000 0.3803132417 0.3803132417 0.3803132417  Biso 1.0 Se
Se4 1.0000000000 0.3803132417 0.3803132417 0.8590602750  Biso 1.0 Se
Se5 1.0000000000 0.3803132417 0.8590602750 0.3803132417  Biso 1.0 Se
Se6 1.0000000000 0.8590602750 0.3803132417 0.3803132417  Biso 1.0 Se
Se7 1.0000000000 0.8696867583 0.8696867583 0.3909397250  Biso 1.0 Se
Se8 1.0000000000 0.8696867583 0.8696867583 0.8696867583  Biso 1.0 Se
Se9 1.0000000000 0.8696867583 0.3909397250 0.8696867583  Biso 1.0 Se
Se10 1.0000000000 0.3909397250 0.8696867583 0.8696867583  Biso 1.0 Se
Yb11 1.0000000000 0.6250000000 0.6250000000 0.6250000000  Biso 1.0 Yb
Yb12 1.0000000000 0.6250000000 0.6250000000 0.1250000000  Biso 1.0 Yb
Yb13 1.0000000000 0.6250000000 0.1250000000 0.6250000000  Biso 1.0 Yb
Yb14 1.0000000000 0.1250000000 0.6250000000 0.6250000000  Biso 1.0 Yb
