# AFLOW.org Repositories
# Cd1Sb2Sn1   [BCT,BCT2,tI16] (STD_PRIM do
data_Cd1Sb2Sn1
_pd_phase_name Cd1Sb2Sn1
_cell_length_a  8.1088161246
_cell_length_b  8.1088161246
_cell_length_c  8.1088161246
_cell_angle_alpha  131.5949021038
_cell_angle_beta  131.5949021038
_cell_angle_gamma  70.8695924018
_symmetry_space_group_name_H-M  'P1'
_symmetry_Int_Tables_Number  1
loop_
_symmetry_equiv_pos_site_id
_symmetry_equiv_pos_as_xyz
  1  x,y,z
loop_
 _atom_site_label
 _atom_site_occupancy
 _atom_site_fract_x
 _atom_site_fract_y
 _atom_site_fract_z
 _atom_site_thermal_displace_type
 _atom_site_B_iso_or_equiv
 _atom_site_type_symbol
Cd1 1.0000000000 0.0000000000 0.0000000000 0.0000000000  Biso 1.0 Cd
Cd2 1.0000000000 0.2500000000 0.7500000000 0.5000000000  Biso 1.0 Cd
Sb3 1.0000000000 0.6250000000 0.1204539688 0.9954539688  Biso 1.0 Sb
Sb4 1.0000000000 0.1250000000 0.6295460312 0.0045460312  Biso 1.0 Sb
Sb5 1.0000000000 0.3704539688 0.3750000000 0.4954539688  Biso 1.0 Sb
Sb6 1.0000000000 0.8795460312 0.8750000000 0.5045460312  Biso 1.0 Sb
Sn7 1.0000000000 0.5000000000 0.5000000000 0.0000000000  Biso 1.0 Sn
Sn8 1.0000000000 0.7500000000 0.2500000000 0.5000000000  Biso 1.0 Sn
