# AFLOW.org Repositories
# Cd1Sc2Se4   [FCC,FCC,cF56] (STD_PRIM doi
data_Cd1Sc2Se4
_pd_phase_name Cd1Sc2Se4
_cell_length_a  8.0822958599
_cell_length_b  8.0822958599
_cell_length_c  8.0822958599
_cell_angle_alpha  60.0000000000
_cell_angle_beta  60.0000000000
_cell_angle_gamma  60.0000000000
_symmetry_space_group_name_H-M  'P1'
_symmetry_Int_Tables_Number  1
loop_
_symmetry_equiv_pos_site_id
_symmetry_equiv_pos_as_xyz
  1  x,y,z
loop_
 _atom_site_label
 _atom_site_occupancy
 _atom_site_fract_x
 _atom_site_fract_y
 _atom_site_fract_z
 _atom_site_thermal_displace_type
 _atom_site_B_iso_or_equiv
 _atom_site_type_symbol
Cd1 1.0000000000 0.3750000000 0.3750000000 0.3750000000  Biso 1.0 Cd
Cd2 1.0000000000 0.6250000000 0.6250000000 0.6250000000  Biso 1.0 Cd
Sc3 1.0000000000 0.0000000000 0.0000000000 0.0000000000  Biso 1.0 Sc
Sc4 1.0000000000 0.0000000000 0.5000000000 0.0000000000  Biso 1.0 Sc
Sc5 1.0000000000 0.5000000000 0.0000000000 0.0000000000  Biso 1.0 Sc
Sc6 1.0000000000 0.0000000000 0.0000000000 0.5000000000  Biso 1.0 Sc
Se7 1.0000000000 0.2403570694 0.2403570694 0.2403570694  Biso 1.0 Se
Se8 1.0000000000 0.2403570694 0.7789287919 0.2403570694  Biso 1.0 Se
Se9 1.0000000000 0.7789287919 0.2403570694 0.2403570694  Biso 1.0 Se
Se10 1.0000000000 0.2403570694 0.2403570694 0.7789287919  Biso 1.0 Se
Se11 1.0000000000 0.7596429306 0.2210712081 0.7596429306  Biso 1.0 Se
Se12 1.0000000000 0.7596429306 0.7596429306 0.7596429306  Biso 1.0 Se
Se13 1.0000000000 0.2210712081 0.7596429306 0.7596429306  Biso 1.0 Se
Se14 1.0000000000 0.7596429306 0.7596429306 0.2210712081  Biso 1.0 Se
