# AFLOW.org Repositories
# Cd3Er1   [ORCC,ORCC,oS16] (STD_PRIM doi:
data_Cd3Er1
_pd_phase_name Cd3Er1
_cell_length_a  6.4691438056
_cell_length_b  6.4691438056
_cell_length_c  4.8462904384
_cell_angle_alpha  90.0000000000
_cell_angle_beta  90.0000000000
_cell_angle_gamma  112.6818880289
_symmetry_space_group_name_H-M  'P1'
_symmetry_Int_Tables_Number  1
loop_
_symmetry_equiv_pos_site_id
_symmetry_equiv_pos_as_xyz
  1  x,y,z
loop_
 _atom_site_label
 _atom_site_occupancy
 _atom_site_fract_x
 _atom_site_fract_y
 _atom_site_fract_z
 _atom_site_thermal_displace_type
 _atom_site_B_iso_or_equiv
 _atom_site_type_symbol
Cd1 1.0000000000 0.1762864677 0.8237135323 0.7500000000  Biso 1.0 Cd
Cd2 1.0000000000 0.8237135323 0.1762864677 0.2500000000  Biso 1.0 Cd
Cd3 1.0000000000 0.6892026450 0.8801160592 0.7500000000  Biso 1.0 Cd
Cd4 1.0000000000 0.3107973550 0.1198839408 0.2500000000  Biso 1.0 Cd
Cd5 1.0000000000 0.1198839408 0.3107973550 0.7500000000  Biso 1.0 Cd
Cd6 1.0000000000 0.8801160592 0.6892026450 0.2500000000  Biso 1.0 Cd
Er7 1.0000000000 0.6320823578 0.3679176422 0.7500000000  Biso 1.0 Er
Er8 1.0000000000 0.3679176422 0.6320823578 0.2500000000  Biso 1.0 Er
