# AFLOW.org Repositories
# Cd3N2   [BCC,BCC,cI80] (STD_PRIM doi:10.
data_Cd3N2
_pd_phase_name Cd3N2
_cell_length_a  9.5081972953
_cell_length_b  9.5081972953
_cell_length_c  9.5081972953
_cell_angle_alpha  109.4712206345
_cell_angle_beta  109.4712206345
_cell_angle_gamma  109.4712206345
_symmetry_space_group_name_H-M  'P1'
_symmetry_Int_Tables_Number  1
loop_
_symmetry_equiv_pos_site_id
_symmetry_equiv_pos_as_xyz
  1  x,y,z
loop_
 _atom_site_label
 _atom_site_occupancy
 _atom_site_fract_x
 _atom_site_fract_y
 _atom_site_fract_z
 _atom_site_thermal_displace_type
 _atom_site_B_iso_or_equiv
 _atom_site_type_symbol
Cd1 1.0000000000 0.9793847345 0.5307848312 0.7563961066  Biso 1.0 Cd
Cd2 1.0000000000 0.7743887246 0.7229886279 0.7436038934  Biso 1.0 Cd
Cd3 1.0000000000 0.5206152655 0.7770113721 0.0514000968  Biso 1.0 Cd
Cd4 1.0000000000 0.7256112754 0.9692151688 0.4485999032  Biso 1.0 Cd
Cd5 1.0000000000 0.7770113721 0.5514000968 0.0206152655  Biso 1.0 Cd
Cd6 1.0000000000 0.9692151688 0.9485999032 0.2256112754  Biso 1.0 Cd
Cd7 1.0000000000 0.5307848312 0.2563961066 0.4793847345  Biso 1.0 Cd
Cd8 1.0000000000 0.7229886279 0.2436038934 0.2743887246  Biso 1.0 Cd
Cd9 1.0000000000 0.2436038934 0.7743887246 0.2229886279  Biso 1.0 Cd
Cd10 1.0000000000 0.2563961066 0.9793847345 0.0307848312  Biso 1.0 Cd
Cd11 1.0000000000 0.9485999032 0.7256112754 0.4692151688  Biso 1.0 Cd
Cd12 1.0000000000 0.5514000968 0.5206152655 0.2770113721  Biso 1.0 Cd
Cd13 1.0000000000 0.0206152655 0.4692151688 0.2436038934  Biso 1.0 Cd
Cd14 1.0000000000 0.2256112754 0.2770113721 0.2563961066  Biso 1.0 Cd
Cd15 1.0000000000 0.4793847345 0.2229886279 0.9485999032  Biso 1.0 Cd
Cd16 1.0000000000 0.2743887246 0.0307848312 0.5514000968  Biso 1.0 Cd
Cd17 1.0000000000 0.2229886279 0.4485999032 0.9793847345  Biso 1.0 Cd
Cd18 1.0000000000 0.0307848312 0.0514000968 0.7743887246  Biso 1.0 Cd
Cd19 1.0000000000 0.4692151688 0.7436038934 0.5206152655  Biso 1.0 Cd
Cd20 1.0000000000 0.2770113721 0.7563961066 0.7256112754  Biso 1.0 Cd
Cd21 1.0000000000 0.7563961066 0.2256112754 0.7770113721  Biso 1.0 Cd
Cd22 1.0000000000 0.7436038934 0.0206152655 0.9692151688  Biso 1.0 Cd
Cd23 1.0000000000 0.0514000968 0.2743887246 0.5307848312  Biso 1.0 Cd
Cd24 1.0000000000 0.4485999032 0.4793847345 0.7229886279  Biso 1.0 Cd
N25 1.0000000000 0.0000000000 0.5000000000 0.0000000000  Biso 1.0 N
N26 1.0000000000 0.5000000000 0.5000000000 0.5000000000  Biso 1.0 N
N27 1.0000000000 0.5000000000 0.0000000000 0.0000000000  Biso 1.0 N
N28 1.0000000000 0.0000000000 0.0000000000 0.5000000000  Biso 1.0 N
N29 1.0000000000 0.2781321126 0.2500000000 0.0281321126  Biso 1.0 N
N30 1.0000000000 0.2218678874 0.7500000000 0.4718678874  Biso 1.0 N
N31 1.0000000000 0.7500000000 0.9718678874 0.7218678874  Biso 1.0 N
N32 1.0000000000 0.2500000000 0.5281321126 0.7781321126  Biso 1.0 N
N33 1.0000000000 0.9718678874 0.2218678874 0.2500000000  Biso 1.0 N
N34 1.0000000000 0.5281321126 0.2781321126 0.7500000000  Biso 1.0 N
N35 1.0000000000 0.7218678874 0.7500000000 0.9718678874  Biso 1.0 N
N36 1.0000000000 0.7781321126 0.2500000000 0.5281321126  Biso 1.0 N
N37 1.0000000000 0.2500000000 0.0281321126 0.2781321126  Biso 1.0 N
N38 1.0000000000 0.7500000000 0.4718678874 0.2218678874  Biso 1.0 N
N39 1.0000000000 0.0281321126 0.7781321126 0.7500000000  Biso 1.0 N
N40 1.0000000000 0.4718678874 0.7218678874 0.2500000000  Biso 1.0 N
