# AFLOW.org Repositories
# Ce1Co1Si2   [ORCC,ORCC,oS16] (STD_PRIM d
data_Ce1Co1Si2
_pd_phase_name Ce1Co1Si2
_cell_length_a  8.2882989453
_cell_length_b  8.2882989453
_cell_length_c  4.0175568130
_cell_angle_alpha  90.0000000000
_cell_angle_beta  90.0000000000
_cell_angle_gamma  151.7773902752
_symmetry_space_group_name_H-M  'P1'
_symmetry_Int_Tables_Number  1
loop_
_symmetry_equiv_pos_site_id
_symmetry_equiv_pos_as_xyz
  1  x,y,z
loop_
 _atom_site_label
 _atom_site_occupancy
 _atom_site_fract_x
 _atom_site_fract_y
 _atom_site_fract_z
 _atom_site_thermal_displace_type
 _atom_site_B_iso_or_equiv
 _atom_site_type_symbol
Ce1 1.0000000000 0.8929708276 0.1070291724 0.7500000000  Biso 1.0 Ce
Ce2 1.0000000000 0.1070291724 0.8929708276 0.2500000000  Biso 1.0 Ce
Co3 1.0000000000 0.6813882424 0.3186117576 0.7500000000  Biso 1.0 Co
Co4 1.0000000000 0.3186117576 0.6813882424 0.2500000000  Biso 1.0 Co
Si5 1.0000000000 0.5422958260 0.4577041740 0.7500000000  Biso 1.0 Si
Si6 1.0000000000 0.4577041740 0.5422958260 0.2500000000  Biso 1.0 Si
Si7 1.0000000000 0.2498070670 0.7501929330 0.7500000000  Biso 1.0 Si
Si8 1.0000000000 0.7501929330 0.2498070670 0.2500000000  Biso 1.0 Si
