# AFLOW.org Repositories
# Ce2In1Pt2   [TET,TET,tP10] (STD_PRIM doi
data_Ce2In1Pt2
_pd_phase_name Ce2In1Pt2
_cell_length_a  7.8248668142
_cell_length_b  7.8248668142
_cell_length_c  3.7523342081
_cell_angle_alpha  90.0000000000
_cell_angle_beta  90.0000000000
_cell_angle_gamma  90.0000000000
_symmetry_space_group_name_H-M  'P1'
_symmetry_Int_Tables_Number  1
loop_
_symmetry_equiv_pos_site_id
_symmetry_equiv_pos_as_xyz
  1  x,y,z
loop_
 _atom_site_label
 _atom_site_occupancy
 _atom_site_fract_x
 _atom_site_fract_y
 _atom_site_fract_z
 _atom_site_thermal_displace_type
 _atom_site_B_iso_or_equiv
 _atom_site_type_symbol
Ce1 1.0000000000 0.6734343768 0.1734343768 0.5000000000  Biso 1.0 Ce
Ce2 1.0000000000 0.3265656232 0.8265656232 0.5000000000  Biso 1.0 Ce
Ce3 1.0000000000 0.8265656232 0.6734343768 0.5000000000  Biso 1.0 Ce
Ce4 1.0000000000 0.1734343768 0.3265656232 0.5000000000  Biso 1.0 Ce
In5 1.0000000000 0.0000000000 0.0000000000 0.0000000000  Biso 1.0 In
In6 1.0000000000 0.5000000000 0.5000000000 0.0000000000  Biso 1.0 In
Pt7 1.0000000000 0.3697872697 0.1302127303 0.0000000000  Biso 1.0 Pt
Pt8 1.0000000000 0.6302127303 0.8697872697 0.0000000000  Biso 1.0 Pt
Pt9 1.0000000000 0.8697872697 0.3697872697 0.0000000000  Biso 1.0 Pt
Pt10 1.0000000000 0.1302127303 0.6302127303 0.0000000000  Biso 1.0 Pt
