# AFLOW.org Repositories
# Cl2H6N2   [CUB,CUB,cP40] (STD_PRIM doi:1
data_Cl2H6N2
_pd_phase_name Cl2H6N2
_cell_length_a  7.9203512984
_cell_length_b  7.9203512984
_cell_length_c  7.9203512984
_cell_angle_alpha  90.0000000000
_cell_angle_beta  90.0000000000
_cell_angle_gamma  90.0000000000
_symmetry_space_group_name_H-M  'P1'
_symmetry_Int_Tables_Number  1
loop_
_symmetry_equiv_pos_site_id
_symmetry_equiv_pos_as_xyz
  1  x,y,z
loop_
 _atom_site_label
 _atom_site_occupancy
 _atom_site_fract_x
 _atom_site_fract_y
 _atom_site_fract_z
 _atom_site_thermal_displace_type
 _atom_site_B_iso_or_equiv
 _atom_site_type_symbol
Cl1 1.0000000000 0.2173153362 0.7173153362 0.2173153362  Biso 1.0 Cl
Cl2 1.0000000000 0.2826846638 0.2826846638 0.7173153362  Biso 1.0 Cl
Cl3 1.0000000000 0.7826846638 0.2173153362 0.2826846638  Biso 1.0 Cl
Cl4 1.0000000000 0.7173153362 0.7826846638 0.7826846638  Biso 1.0 Cl
Cl5 1.0000000000 0.7826846638 0.2826846638 0.7826846638  Biso 1.0 Cl
Cl6 1.0000000000 0.7173153362 0.7173153362 0.2826846638  Biso 1.0 Cl
Cl7 1.0000000000 0.2173153362 0.7826846638 0.7173153362  Biso 1.0 Cl
Cl8 1.0000000000 0.2826846638 0.2173153362 0.2173153362  Biso 1.0 Cl
H9 1.0000000000 0.3599900649 0.6176310208 0.0260707388  Biso 1.0 H
H10 1.0000000000 0.1400099351 0.3823689792 0.5260707388  Biso 1.0 H
H11 1.0000000000 0.6400099351 0.1176310208 0.4739292612  Biso 1.0 H
H12 1.0000000000 0.8599900649 0.8823689792 0.9739292612  Biso 1.0 H
H13 1.0000000000 0.9739292612 0.3599900649 0.3823689792  Biso 1.0 H
H14 1.0000000000 0.4739292612 0.1400099351 0.6176310208  Biso 1.0 H
H15 1.0000000000 0.5260707388 0.6400099351 0.8823689792  Biso 1.0 H
H16 1.0000000000 0.0260707388 0.8599900649 0.1176310208  Biso 1.0 H
H17 1.0000000000 0.6176310208 0.9739292612 0.6400099351  Biso 1.0 H
H18 1.0000000000 0.3823689792 0.4739292612 0.8599900649  Biso 1.0 H
H19 1.0000000000 0.1176310208 0.5260707388 0.3599900649  Biso 1.0 H
H20 1.0000000000 0.8823689792 0.0260707388 0.1400099351  Biso 1.0 H
H21 1.0000000000 0.6400099351 0.3823689792 0.9739292612  Biso 1.0 H
H22 1.0000000000 0.8599900649 0.6176310208 0.4739292612  Biso 1.0 H
H23 1.0000000000 0.3599900649 0.8823689792 0.5260707388  Biso 1.0 H
H24 1.0000000000 0.1400099351 0.1176310208 0.0260707388  Biso 1.0 H
H25 1.0000000000 0.0260707388 0.6400099351 0.6176310208  Biso 1.0 H
H26 1.0000000000 0.5260707388 0.8599900649 0.3823689792  Biso 1.0 H
H27 1.0000000000 0.4739292612 0.3599900649 0.1176310208  Biso 1.0 H
H28 1.0000000000 0.9739292612 0.1400099351 0.8823689792  Biso 1.0 H
H29 1.0000000000 0.3823689792 0.0260707388 0.3599900649  Biso 1.0 H
H30 1.0000000000 0.6176310208 0.5260707388 0.1400099351  Biso 1.0 H
H31 1.0000000000 0.8823689792 0.4739292612 0.6400099351  Biso 1.0 H
H32 1.0000000000 0.1176310208 0.9739292612 0.8599900649  Biso 1.0 H
N33 1.0000000000 0.4473343908 0.5526656092 0.9473343908  Biso 1.0 N
N34 1.0000000000 0.0526656092 0.4473343908 0.4473343908  Biso 1.0 N
N35 1.0000000000 0.5526656092 0.0526656092 0.5526656092  Biso 1.0 N
N36 1.0000000000 0.9473343908 0.9473343908 0.0526656092  Biso 1.0 N
N37 1.0000000000 0.5526656092 0.4473343908 0.0526656092  Biso 1.0 N
N38 1.0000000000 0.9473343908 0.5526656092 0.5526656092  Biso 1.0 N
N39 1.0000000000 0.4473343908 0.9473343908 0.4473343908  Biso 1.0 N
N40 1.0000000000 0.0526656092 0.0526656092 0.9473343908  Biso 1.0 N
