# AFLOW.org Repositories
# Cl4Hg3O1   [CUB,CUB,cP32] (STD_PRIM doi:
data_Cl4Hg3O1
_pd_phase_name Cl4Hg3O1
_cell_length_a  9.5557697069
_cell_length_b  9.5557697069
_cell_length_c  9.5557697069
_cell_angle_alpha  90.0000000000
_cell_angle_beta  90.0000000000
_cell_angle_gamma  90.0000000000
_symmetry_space_group_name_H-M  'P1'
_symmetry_Int_Tables_Number  1
loop_
_symmetry_equiv_pos_site_id
_symmetry_equiv_pos_as_xyz
  1  x,y,z
loop_
 _atom_site_label
 _atom_site_occupancy
 _atom_site_fract_x
 _atom_site_fract_y
 _atom_site_fract_z
 _atom_site_thermal_displace_type
 _atom_site_B_iso_or_equiv
 _atom_site_type_symbol
Cl1 1.0000000000 0.8070856439 0.4698023901 0.3419306151  Biso 1.0 Cl
Cl2 1.0000000000 0.6929143561 0.5301976099 0.8419306151  Biso 1.0 Cl
Cl3 1.0000000000 0.1929143561 0.9698023901 0.1580693849  Biso 1.0 Cl
Cl4 1.0000000000 0.3070856439 0.0301976099 0.6580693849  Biso 1.0 Cl
Cl5 1.0000000000 0.6580693849 0.8070856439 0.5301976099  Biso 1.0 Cl
Cl6 1.0000000000 0.1580693849 0.6929143561 0.4698023901  Biso 1.0 Cl
Cl7 1.0000000000 0.8419306151 0.1929143561 0.0301976099  Biso 1.0 Cl
Cl8 1.0000000000 0.3419306151 0.3070856439 0.9698023901  Biso 1.0 Cl
Cl9 1.0000000000 0.4698023901 0.6580693849 0.1929143561  Biso 1.0 Cl
Cl10 1.0000000000 0.5301976099 0.1580693849 0.3070856439  Biso 1.0 Cl
Cl11 1.0000000000 0.9698023901 0.8419306151 0.8070856439  Biso 1.0 Cl
Cl12 1.0000000000 0.0301976099 0.3419306151 0.6929143561  Biso 1.0 Cl
Cl13 1.0000000000 0.4289815152 0.4289815152 0.5710184848  Biso 1.0 Cl
Cl14 1.0000000000 0.0710184848 0.5710184848 0.0710184848  Biso 1.0 Cl
Cl15 1.0000000000 0.5710184848 0.9289815152 0.9289815152  Biso 1.0 Cl
Cl16 1.0000000000 0.9289815152 0.0710184848 0.4289815152  Biso 1.0 Cl
Hg17 1.0000000000 0.9829754631 0.7674626817 0.3163409731  Biso 1.0 Hg
Hg18 1.0000000000 0.5170245369 0.2325373183 0.8163409731  Biso 1.0 Hg
Hg19 1.0000000000 0.0170245369 0.2674626817 0.1836590269  Biso 1.0 Hg
Hg20 1.0000000000 0.4829754631 0.7325373183 0.6836590269  Biso 1.0 Hg
Hg21 1.0000000000 0.6836590269 0.9829754631 0.2325373183  Biso 1.0 Hg
Hg22 1.0000000000 0.1836590269 0.5170245369 0.7674626817  Biso 1.0 Hg
Hg23 1.0000000000 0.8163409731 0.0170245369 0.7325373183  Biso 1.0 Hg
Hg24 1.0000000000 0.3163409731 0.4829754631 0.2674626817  Biso 1.0 Hg
Hg25 1.0000000000 0.7674626817 0.6836590269 0.0170245369  Biso 1.0 Hg
Hg26 1.0000000000 0.2325373183 0.1836590269 0.4829754631  Biso 1.0 Hg
Hg27 1.0000000000 0.2674626817 0.8163409731 0.9829754631  Biso 1.0 Hg
Hg28 1.0000000000 0.7325373183 0.3163409731 0.5170245369  Biso 1.0 Hg
O29 1.0000000000 0.8236004551 0.8236004551 0.1763995449  Biso 1.0 O
O30 1.0000000000 0.6763995449 0.1763995449 0.6763995449  Biso 1.0 O
O31 1.0000000000 0.1763995449 0.3236004551 0.3236004551  Biso 1.0 O
O32 1.0000000000 0.3236004551 0.6763995449 0.8236004551  Biso 1.0 O
