# AFLOW.org Repositories
# Cl4Hg3O1   [CUB,CUB,cP32] (STD_PRIM doi:
data_Cl4Hg3O1
_pd_phase_name Cl4Hg3O1
_cell_length_a  9.5552812804
_cell_length_b  9.5552812804
_cell_length_c  9.5552812804
_cell_angle_alpha  90.0000000000
_cell_angle_beta  90.0000000000
_cell_angle_gamma  90.0000000000
_symmetry_space_group_name_H-M  'P1'
_symmetry_Int_Tables_Number  1
loop_
_symmetry_equiv_pos_site_id
_symmetry_equiv_pos_as_xyz
  1  x,y,z
loop_
 _atom_site_label
 _atom_site_occupancy
 _atom_site_fract_x
 _atom_site_fract_y
 _atom_site_fract_z
 _atom_site_thermal_displace_type
 _atom_site_B_iso_or_equiv
 _atom_site_type_symbol
Cl1 1.0000000000 0.6945025289 0.9695462346 0.3411619439  Biso 1.0 Cl
Cl2 1.0000000000 0.8054974711 0.0304537654 0.8411619439  Biso 1.0 Cl
Cl3 1.0000000000 0.3054974711 0.4695462346 0.1588380561  Biso 1.0 Cl
Cl4 1.0000000000 0.1945025289 0.5304537654 0.6588380561  Biso 1.0 Cl
Cl5 1.0000000000 0.6588380561 0.6945025289 0.0304537654  Biso 1.0 Cl
Cl6 1.0000000000 0.1588380561 0.8054974711 0.9695462346  Biso 1.0 Cl
Cl7 1.0000000000 0.8411619439 0.3054974711 0.5304537654  Biso 1.0 Cl
Cl8 1.0000000000 0.3411619439 0.1945025289 0.4695462346  Biso 1.0 Cl
Cl9 1.0000000000 0.9695462346 0.6588380561 0.3054974711  Biso 1.0 Cl
Cl10 1.0000000000 0.0304537654 0.1588380561 0.1945025289  Biso 1.0 Cl
Cl11 1.0000000000 0.4695462346 0.8411619439 0.6945025289  Biso 1.0 Cl
Cl12 1.0000000000 0.5304537654 0.3411619439 0.8054974711  Biso 1.0 Cl
Cl13 1.0000000000 0.5707662492 0.5707662492 0.4292337508  Biso 1.0 Cl
Cl14 1.0000000000 0.9292337508 0.4292337508 0.9292337508  Biso 1.0 Cl
Cl15 1.0000000000 0.4292337508 0.0707662492 0.0707662492  Biso 1.0 Cl
Cl16 1.0000000000 0.0707662492 0.9292337508 0.5707662492  Biso 1.0 Cl
Hg17 1.0000000000 0.7695740416 0.8179337467 0.5173906690  Biso 1.0 Hg
Hg18 1.0000000000 0.7304259584 0.1820662533 0.0173906690  Biso 1.0 Hg
Hg19 1.0000000000 0.2304259584 0.3179337467 0.9826093310  Biso 1.0 Hg
Hg20 1.0000000000 0.2695740416 0.6820662533 0.4826093310  Biso 1.0 Hg
Hg21 1.0000000000 0.4826093310 0.7695740416 0.1820662533  Biso 1.0 Hg
Hg22 1.0000000000 0.9826093310 0.7304259584 0.8179337467  Biso 1.0 Hg
Hg23 1.0000000000 0.0173906690 0.2304259584 0.6820662533  Biso 1.0 Hg
Hg24 1.0000000000 0.5173906690 0.2695740416 0.3179337467  Biso 1.0 Hg
Hg25 1.0000000000 0.8179337467 0.4826093310 0.2304259584  Biso 1.0 Hg
Hg26 1.0000000000 0.1820662533 0.9826093310 0.2695740416  Biso 1.0 Hg
Hg27 1.0000000000 0.3179337467 0.0173906690 0.7695740416  Biso 1.0 Hg
Hg28 1.0000000000 0.6820662533 0.5173906690 0.7304259584  Biso 1.0 Hg
O29 1.0000000000 0.1780831755 0.1780831755 0.8219168245  Biso 1.0 O
O30 1.0000000000 0.3219168245 0.8219168245 0.3219168245  Biso 1.0 O
O31 1.0000000000 0.8219168245 0.6780831755 0.6780831755  Biso 1.0 O
O32 1.0000000000 0.6780831755 0.3219168245 0.1780831755  Biso 1.0 O
