# AFLOW.org Repositories
# Co1Dy1Ge2   [ORCC,ORCC,oS16] (STD_PRIM d
data_Co1Dy1Ge2
_pd_phase_name Co1Dy1Ge2
_cell_length_a  8.3808205460
_cell_length_b  8.3808205460
_cell_length_c  4.1523550501
_cell_angle_alpha  90.0000000000
_cell_angle_beta  90.0000000000
_cell_angle_gamma  151.3899249959
_symmetry_space_group_name_H-M  'P1'
_symmetry_Int_Tables_Number  1
loop_
_symmetry_equiv_pos_site_id
_symmetry_equiv_pos_as_xyz
  1  x,y,z
loop_
 _atom_site_label
 _atom_site_occupancy
 _atom_site_fract_x
 _atom_site_fract_y
 _atom_site_fract_z
 _atom_site_thermal_displace_type
 _atom_site_B_iso_or_equiv
 _atom_site_type_symbol
Co1 1.0000000000 0.3164582784 0.6835417216 0.7500000000  Biso 1.0 Co
Co2 1.0000000000 0.6835417216 0.3164582784 0.2500000000  Biso 1.0 Co
Dy3 1.0000000000 0.1079429864 0.8920570136 0.7500000000  Biso 1.0 Dy
Dy4 1.0000000000 0.8920570136 0.1079429864 0.2500000000  Biso 1.0 Dy
Ge5 1.0000000000 0.4540715407 0.5459284593 0.7500000000  Biso 1.0 Ge
Ge6 1.0000000000 0.5459284593 0.4540715407 0.2500000000  Biso 1.0 Ge
Ge7 1.0000000000 0.7495262815 0.2504737185 0.7500000000  Biso 1.0 Ge
Ge8 1.0000000000 0.2504737185 0.7495262815 0.2500000000  Biso 1.0 Ge
