# AFLOW.org Repositories
# Co1O6Sb2   [TET,TET,tP18] (STD_PRIM doi:
data_Co1O6Sb2
_pd_phase_name Co1O6Sb2
_cell_length_a  4.7282749932
_cell_length_b  4.7282749932
_cell_length_c  9.4236365780
_cell_angle_alpha  90.0000000000
_cell_angle_beta  90.0000000000
_cell_angle_gamma  90.0000000000
_symmetry_space_group_name_H-M  'P1'
_symmetry_Int_Tables_Number  1
loop_
_symmetry_equiv_pos_site_id
_symmetry_equiv_pos_as_xyz
  1  x,y,z
loop_
 _atom_site_label
 _atom_site_occupancy
 _atom_site_fract_x
 _atom_site_fract_y
 _atom_site_fract_z
 _atom_site_thermal_displace_type
 _atom_site_B_iso_or_equiv
 _atom_site_type_symbol
Co1 1.0000000000 0.0000000000 0.0000000000 0.0000000000  Biso 1.0 Co
Co2 1.0000000000 0.5000000000 0.5000000000 0.5000000000  Biso 1.0 Co
O3 1.0000000000 0.3101689761 0.3101689761 0.0000000000  Biso 1.0 O
O4 1.0000000000 0.6898310239 0.6898310239 0.0000000000  Biso 1.0 O
O5 1.0000000000 0.1898310239 0.8101689761 0.5000000000  Biso 1.0 O
O6 1.0000000000 0.8101689761 0.1898310239 0.5000000000  Biso 1.0 O
O7 1.0000000000 0.3023313686 0.3023313686 0.3278792045  Biso 1.0 O
O8 1.0000000000 0.6976686314 0.6976686314 0.3278792045  Biso 1.0 O
O9 1.0000000000 0.1976686314 0.8023313686 0.8278792045  Biso 1.0 O
O10 1.0000000000 0.8023313686 0.1976686314 0.8278792045  Biso 1.0 O
O11 1.0000000000 0.1976686314 0.8023313686 0.1721207955  Biso 1.0 O
O12 1.0000000000 0.8023313686 0.1976686314 0.1721207955  Biso 1.0 O
O13 1.0000000000 0.3023313686 0.3023313686 0.6721207955  Biso 1.0 O
O14 1.0000000000 0.6976686314 0.6976686314 0.6721207955  Biso 1.0 O
Sb15 1.0000000000 0.0000000000 0.0000000000 0.3322021010  Biso 1.0 Sb
Sb16 1.0000000000 0.5000000000 0.5000000000 0.8322021010  Biso 1.0 Sb
Sb17 1.0000000000 0.5000000000 0.5000000000 0.1677978990  Biso 1.0 Sb
Sb18 1.0000000000 0.0000000000 0.0000000000 0.6677978990  Biso 1.0 Sb
