# AFLOW.org Repositories
# Co1Te2   [ORC,ORC,oP6] (STD_PRIM doi:10.
data_Co1Te2
_pd_phase_name Co1Te2
_cell_length_a  4.0558151662
_cell_length_b  5.4155883724
_cell_length_c  6.5946119758
_cell_angle_alpha  90.0000000000
_cell_angle_beta  90.0000000000
_cell_angle_gamma  90.0000000000
_symmetry_space_group_name_H-M  'P1'
_symmetry_Int_Tables_Number  1
loop_
_symmetry_equiv_pos_site_id
_symmetry_equiv_pos_as_xyz
  1  x,y,z
loop_
 _atom_site_label
 _atom_site_occupancy
 _atom_site_fract_x
 _atom_site_fract_y
 _atom_site_fract_z
 _atom_site_thermal_displace_type
 _atom_site_B_iso_or_equiv
 _atom_site_type_symbol
Co1 1.0000000000 0.0000000000 0.0000000000 0.0000000000  Biso 1.0 Co
Co2 1.0000000000 0.4999047359 0.5000000000 0.5000000000  Biso 1.0 Co
Te3 1.0000000000 0.0000000000 0.2111647407 0.6296071923  Biso 1.0 Te
Te4 1.0000000000 0.0000000000 0.7888352593 0.3703928077  Biso 1.0 Te
Te5 1.0000000000 0.4996594647 0.7111657513 0.8703861723  Biso 1.0 Te
Te6 1.0000000000 0.4996594647 0.2888342487 0.1296138277  Biso 1.0 Te
