# AFLOW.org Repositories
# Co2N1Ta4   [FCC,FCC,cF112] (STD_PRIM doi
data_Co2N1Ta4
_pd_phase_name Co2N1Ta4
_cell_length_a  8.2244366334
_cell_length_b  8.2244366334
_cell_length_c  8.2244366334
_cell_angle_alpha  60.0000000000
_cell_angle_beta  60.0000000000
_cell_angle_gamma  60.0000000000
_symmetry_space_group_name_H-M  'P1'
_symmetry_Int_Tables_Number  1
loop_
_symmetry_equiv_pos_site_id
_symmetry_equiv_pos_as_xyz
  1  x,y,z
loop_
 _atom_site_label
 _atom_site_occupancy
 _atom_site_fract_x
 _atom_site_fract_y
 _atom_site_fract_z
 _atom_site_thermal_displace_type
 _atom_site_B_iso_or_equiv
 _atom_site_type_symbol
Co1 1.0000000000 0.3926355111 0.2024548296 0.2024548296  Biso 1.0 Co
Co2 1.0000000000 0.7024548296 0.2024548296 0.8926355111  Biso 1.0 Co
Co3 1.0000000000 0.7024548296 0.2024548296 0.2024548296  Biso 1.0 Co
Co4 1.0000000000 0.7024548296 0.8926355111 0.2024548296  Biso 1.0 Co
Co5 1.0000000000 0.2975451704 0.7975451704 0.1073644889  Biso 1.0 Co
Co6 1.0000000000 0.6073644889 0.7975451704 0.7975451704  Biso 1.0 Co
Co7 1.0000000000 0.2975451704 0.7975451704 0.7975451704  Biso 1.0 Co
Co8 1.0000000000 0.2975451704 0.1073644889 0.7975451704  Biso 1.0 Co
N9 1.0000000000 0.5000000000 0.5000000000 0.5000000000  Biso 1.0 N
N10 1.0000000000 0.0000000000 0.5000000000 0.0000000000  Biso 1.0 N
N11 1.0000000000 0.0000000000 0.5000000000 0.5000000000  Biso 1.0 N
N12 1.0000000000 0.0000000000 0.0000000000 0.5000000000  Biso 1.0 N
Ta13 1.0000000000 0.0000000000 0.0000000000 0.0000000000  Biso 1.0 Ta
Ta14 1.0000000000 0.5000000000 0.0000000000 0.5000000000  Biso 1.0 Ta
Ta15 1.0000000000 0.5000000000 0.0000000000 0.0000000000  Biso 1.0 Ta
Ta16 1.0000000000 0.5000000000 0.5000000000 0.0000000000  Biso 1.0 Ta
Ta17 1.0000000000 0.3133591203 0.8133591203 0.4366408797  Biso 1.0 Ta
Ta18 1.0000000000 0.9366408797 0.4366408797 0.8133591203  Biso 1.0 Ta
Ta19 1.0000000000 0.3133591203 0.4366408797 0.4366408797  Biso 1.0 Ta
Ta20 1.0000000000 0.9366408797 0.8133591203 0.8133591203  Biso 1.0 Ta
Ta21 1.0000000000 0.3133591203 0.4366408797 0.8133591203  Biso 1.0 Ta
Ta22 1.0000000000 0.9366408797 0.8133591203 0.4366408797  Biso 1.0 Ta
Ta23 1.0000000000 0.0633591203 0.1866408797 0.1866408797  Biso 1.0 Ta
Ta24 1.0000000000 0.6866408797 0.5633591203 0.5633591203  Biso 1.0 Ta
Ta25 1.0000000000 0.0633591203 0.5633591203 0.1866408797  Biso 1.0 Ta
Ta26 1.0000000000 0.6866408797 0.1866408797 0.5633591203  Biso 1.0 Ta
Ta27 1.0000000000 0.6866408797 0.5633591203 0.1866408797  Biso 1.0 Ta
Ta28 1.0000000000 0.0633591203 0.1866408797 0.5633591203  Biso 1.0 Ta
