# AFLOW.org Repositories
# Co3S4   [FCC,FCC,cF56] (STD_PRIM doi:10.
data_Co3S4
_pd_phase_name Co3S4
_cell_length_a  6.8291833634
_cell_length_b  6.8291833634
_cell_length_c  6.8291833634
_cell_angle_alpha  60.0000000000
_cell_angle_beta  60.0000000000
_cell_angle_gamma  60.0000000000
_symmetry_space_group_name_H-M  'P1'
_symmetry_Int_Tables_Number  1
loop_
_symmetry_equiv_pos_site_id
_symmetry_equiv_pos_as_xyz
  1  x,y,z
loop_
 _atom_site_label
 _atom_site_occupancy
 _atom_site_fract_x
 _atom_site_fract_y
 _atom_site_fract_z
 _atom_site_thermal_displace_type
 _atom_site_B_iso_or_equiv
 _atom_site_type_symbol
Co1 1.0000000000 0.0000000000 0.0000000000 0.0000000000  Biso 1.0 Co
Co2 1.0000000000 0.7500000000 0.7500000000 0.7500000000  Biso 1.0 Co
Co3 1.0000000000 0.3750000000 0.8750000000 0.3750000000  Biso 1.0 Co
Co4 1.0000000000 0.8750000000 0.3750000000 0.3750000000  Biso 1.0 Co
Co5 1.0000000000 0.3750000000 0.3750000000 0.8750000000  Biso 1.0 Co
Co6 1.0000000000 0.3750000000 0.3750000000 0.3750000000  Biso 1.0 Co
S7 1.0000000000 0.6108770353 0.1673688940 0.6108770353  Biso 1.0 S
S8 1.0000000000 0.1673688940 0.6108770353 0.6108770353  Biso 1.0 S
S9 1.0000000000 0.6108770353 0.6108770353 0.1673688940  Biso 1.0 S
S10 1.0000000000 0.6108770353 0.6108770353 0.6108770353  Biso 1.0 S
S11 1.0000000000 0.5826311060 0.1391229647 0.1391229647  Biso 1.0 S
S12 1.0000000000 0.1391229647 0.5826311060 0.1391229647  Biso 1.0 S
S13 1.0000000000 0.1391229647 0.1391229647 0.5826311060  Biso 1.0 S
S14 1.0000000000 0.1391229647 0.1391229647 0.1391229647  Biso 1.0 S
