# AFLOW.org Repositories
# Co5Y1   [HEX,HEX,hP6] (STD_PRIM doi:10.1
data_Co5Y1
_pd_phase_name Co5Y1
_cell_length_a  5.1159158086
_cell_length_b  5.1159158086
_cell_length_c  3.9821332426
_cell_angle_alpha  90.0000000000
_cell_angle_beta  90.0000000000
_cell_angle_gamma  112.8203177438
_symmetry_space_group_name_H-M  'P1'
_symmetry_Int_Tables_Number  1
loop_
_symmetry_equiv_pos_site_id
_symmetry_equiv_pos_as_xyz
  1  x,y,z
loop_
 _atom_site_label
 _atom_site_occupancy
 _atom_site_fract_x
 _atom_site_fract_y
 _atom_site_fract_z
 _atom_site_thermal_displace_type
 _atom_site_B_iso_or_equiv
 _atom_site_type_symbol
Co1 1.0000000000 0.3354948385 0.6645051615 0.0000000000  Biso 1.0 Co
Co2 1.0000000000 0.6645051615 0.3354948385 0.0000000000  Biso 1.0 Co
Co3 1.0000000000 0.0000000000 0.5000000000 0.5000000000  Biso 1.0 Co
Co4 1.0000000000 0.5000000000 0.0000000000 0.5000000000  Biso 1.0 Co
Co5 1.0000000000 0.5000000000 0.5000000000 0.5000000000  Biso 1.0 Co
Y6 1.0000000000 0.0000000000 0.0000000000 0.0000000000  Biso 1.0 Y
