# AFLOW.org Repositories
# Cr1Ho1O4   [BCT,BCT1,tI24] (STD_PRIM doi
data_Cr1Ho1O4
_pd_phase_name Cr1Ho1O4
_cell_length_a  5.9682766081
_cell_length_b  5.9682766081
_cell_length_c  5.9682766081
_cell_angle_alpha  105.9981130350
_cell_angle_beta  105.9981130350
_cell_angle_gamma  116.6659886063
_symmetry_space_group_name_H-M  'P1'
_symmetry_Int_Tables_Number  1
loop_
_symmetry_equiv_pos_site_id
_symmetry_equiv_pos_as_xyz
  1  x,y,z
loop_
 _atom_site_label
 _atom_site_occupancy
 _atom_site_fract_x
 _atom_site_fract_y
 _atom_site_fract_z
 _atom_site_thermal_displace_type
 _atom_site_B_iso_or_equiv
 _atom_site_type_symbol
Cr1 1.0000000000 0.3750000000 0.6250000000 0.2500000000  Biso 1.0 Cr
Cr2 1.0000000000 0.6250000000 0.3750000000 0.7500000000  Biso 1.0 Cr
Ho3 1.0000000000 0.1250000000 0.8750000000 0.7500000000  Biso 1.0 Ho
Ho4 1.0000000000 0.8750000000 0.1250000000 0.2500000000  Biso 1.0 Ho
O5 1.0000000000 0.1993453574 0.6339710490 0.4346256916  Biso 1.0 O
O6 1.0000000000 0.1993453574 0.2647196657 0.0653743084  Biso 1.0 O
O7 1.0000000000 0.6339710490 0.1993453574 0.9346256916  Biso 1.0 O
O8 1.0000000000 0.2647196657 0.1993453574 0.5653743084  Biso 1.0 O
O9 1.0000000000 0.8006546426 0.7352803343 0.9346256916  Biso 1.0 O
O10 1.0000000000 0.8006546426 0.3660289510 0.5653743084  Biso 1.0 O
O11 1.0000000000 0.3660289510 0.8006546426 0.0653743084  Biso 1.0 O
O12 1.0000000000 0.7352803343 0.8006546426 0.4346256916  Biso 1.0 O
