# AFLOW.org Repositories
# Cr1La1S3   [ORC,ORC,oP20] (STD_PRIM doi:
data_Cr1La1S3
_pd_phase_name Cr1La1S3
_cell_length_a  3.8751314501
_cell_length_b  7.9068176340
_cell_length_c  13.3643911453
_cell_angle_alpha  90.0000000000
_cell_angle_beta  90.0000000000
_cell_angle_gamma  90.0000000000
_symmetry_space_group_name_H-M  'P1'
_symmetry_Int_Tables_Number  1
loop_
_symmetry_equiv_pos_site_id
_symmetry_equiv_pos_as_xyz
  1  x,y,z
loop_
 _atom_site_label
 _atom_site_occupancy
 _atom_site_fract_x
 _atom_site_fract_y
 _atom_site_fract_z
 _atom_site_thermal_displace_type
 _atom_site_B_iso_or_equiv
 _atom_site_type_symbol
Cr1 1.0000000000 0.2500000000 0.3399591256 0.0525151352  Biso 1.0 Cr
Cr2 1.0000000000 0.7500000000 0.1600408744 0.5525151352  Biso 1.0 Cr
Cr3 1.0000000000 0.7500000000 0.6600408744 0.9474848648  Biso 1.0 Cr
Cr4 1.0000000000 0.2500000000 0.8399591256 0.4474848648  Biso 1.0 Cr
La5 1.0000000000 0.2500000000 0.0904273187 0.8280866910  Biso 1.0 La
La6 1.0000000000 0.7500000000 0.4095726813 0.3280866910  Biso 1.0 La
La7 1.0000000000 0.7500000000 0.9095726813 0.1719133090  Biso 1.0 La
La8 1.0000000000 0.2500000000 0.5904273187 0.6719133090  Biso 1.0 La
S9 1.0000000000 0.2500000000 0.1937145181 0.2117916506  Biso 1.0 S
S10 1.0000000000 0.7500000000 0.3062854819 0.7117916506  Biso 1.0 S
S11 1.0000000000 0.7500000000 0.8062854819 0.7882083494  Biso 1.0 S
S12 1.0000000000 0.2500000000 0.6937145181 0.2882083494  Biso 1.0 S
S13 1.0000000000 0.2500000000 0.3386121361 0.4947388415  Biso 1.0 S
S14 1.0000000000 0.7500000000 0.1613878639 0.9947388415  Biso 1.0 S
S15 1.0000000000 0.7500000000 0.6613878639 0.5052611585  Biso 1.0 S
S16 1.0000000000 0.2500000000 0.8386121361 0.0052611585  Biso 1.0 S
S17 1.0000000000 0.2500000000 0.4862565479 0.8935848119  Biso 1.0 S
S18 1.0000000000 0.7500000000 0.0137434521 0.3935848119  Biso 1.0 S
S19 1.0000000000 0.7500000000 0.5137434521 0.1064151881  Biso 1.0 S
S20 1.0000000000 0.2500000000 0.9862565479 0.6064151881  Biso 1.0 S
