# AFLOW.org Repositories
# Cr1O4P1   [ORCC,ORCC,oS24] (STD_PRIM doi
data_Cr1O4P1
_pd_phase_name Cr1O4P1
_cell_length_a  4.7290802468
_cell_length_b  4.7290802468
_cell_length_c  6.2953730977
_cell_angle_alpha  90.0000000000
_cell_angle_beta  90.0000000000
_cell_angle_gamma  112.7583248583
_symmetry_space_group_name_H-M  'P1'
_symmetry_Int_Tables_Number  1
loop_
_symmetry_equiv_pos_site_id
_symmetry_equiv_pos_as_xyz
  1  x,y,z
loop_
 _atom_site_label
 _atom_site_occupancy
 _atom_site_fract_x
 _atom_site_fract_y
 _atom_site_fract_z
 _atom_site_thermal_displace_type
 _atom_site_B_iso_or_equiv
 _atom_site_type_symbol
Cr1 1.0000000000 0.0000000000 0.0000000000 0.0000000000  Biso 1.0 Cr
Cr2 1.0000000000 0.0000000000 0.0000000000 0.5000000000  Biso 1.0 Cr
O3 1.0000000000 0.2468735622 0.7531264378 0.0460580382  Biso 1.0 O
O4 1.0000000000 0.7531264378 0.2468735622 0.5460580382  Biso 1.0 O
O5 1.0000000000 0.2468735622 0.7531264378 0.4539419618  Biso 1.0 O
O6 1.0000000000 0.7531264378 0.2468735622 0.9539419618  Biso 1.0 O
O7 1.0000000000 0.2235864748 0.2855278435 0.2500000000  Biso 1.0 O
O8 1.0000000000 0.7764135252 0.7144721565 0.7500000000  Biso 1.0 O
O9 1.0000000000 0.7144721565 0.7764135252 0.2500000000  Biso 1.0 O
O10 1.0000000000 0.2855278435 0.2235864748 0.7500000000  Biso 1.0 O
P11 1.0000000000 0.3491695084 0.6508304916 0.2500000000  Biso 1.0 P
P12 1.0000000000 0.6508304916 0.3491695084 0.7500000000  Biso 1.0 P
