# AFLOW.org Repositories
# Cr2O6W1   [TET,TET,tP18] (STD_PRIM doi:1
data_Cr2O6W1
_pd_phase_name Cr2O6W1
_cell_length_a  4.6555394989
_cell_length_b  4.6555394989
_cell_length_c  9.0625572192
_cell_angle_alpha  90.0000000000
_cell_angle_beta  90.0000000000
_cell_angle_gamma  90.0000000000
_symmetry_space_group_name_H-M  'P1'
_symmetry_Int_Tables_Number  1
loop_
_symmetry_equiv_pos_site_id
_symmetry_equiv_pos_as_xyz
  1  x,y,z
loop_
 _atom_site_label
 _atom_site_occupancy
 _atom_site_fract_x
 _atom_site_fract_y
 _atom_site_fract_z
 _atom_site_thermal_displace_type
 _atom_site_B_iso_or_equiv
 _atom_site_type_symbol
Cr1 1.0000000000 0.0000000000 0.0000000000 0.3344569553  Biso 1.0 Cr
Cr2 1.0000000000 0.5000000000 0.5000000000 0.8344569553  Biso 1.0 Cr
Cr3 1.0000000000 0.5000000000 0.5000000000 0.1655430447  Biso 1.0 Cr
Cr4 1.0000000000 0.0000000000 0.0000000000 0.6655430447  Biso 1.0 Cr
O5 1.0000000000 0.2992567940 0.2992567940 0.0000000000  Biso 1.0 O
O6 1.0000000000 0.7007432060 0.7007432060 0.0000000000  Biso 1.0 O
O7 1.0000000000 0.2007432060 0.7992567940 0.5000000000  Biso 1.0 O
O8 1.0000000000 0.7992567940 0.2007432060 0.5000000000  Biso 1.0 O
O9 1.0000000000 0.3055135974 0.3055135974 0.3405534023  Biso 1.0 O
O10 1.0000000000 0.6944864026 0.6944864026 0.3405534023  Biso 1.0 O
O11 1.0000000000 0.1944864026 0.8055135974 0.8405534023  Biso 1.0 O
O12 1.0000000000 0.8055135974 0.1944864026 0.8405534023  Biso 1.0 O
O13 1.0000000000 0.1944864026 0.8055135974 0.1594465977  Biso 1.0 O
O14 1.0000000000 0.8055135974 0.1944864026 0.1594465977  Biso 1.0 O
O15 1.0000000000 0.3055135974 0.3055135974 0.6594465977  Biso 1.0 O
O16 1.0000000000 0.6944864026 0.6944864026 0.6594465977  Biso 1.0 O
W17 1.0000000000 0.0000000000 0.0000000000 0.0000000000  Biso 1.0 W
W18 1.0000000000 0.5000000000 0.5000000000 0.5000000000  Biso 1.0 W
