# AFLOW.org Repositories
# Cs1I2Li1   [ORCC,ORCC,oS32] (STD_PRIM do
data_Cs1I2Li1
_pd_phase_name Cs1I2Li1
_cell_length_a  10.6878424531
_cell_length_b  10.6878424531
_cell_length_c  13.8068044359
_cell_angle_alpha  90.0000000000
_cell_angle_beta  90.0000000000
_cell_angle_gamma  154.6391704353
_symmetry_space_group_name_H-M  'P1'
_symmetry_Int_Tables_Number  1
loop_
_symmetry_equiv_pos_site_id
_symmetry_equiv_pos_as_xyz
  1  x,y,z
loop_
 _atom_site_label
 _atom_site_occupancy
 _atom_site_fract_x
 _atom_site_fract_y
 _atom_site_fract_z
 _atom_site_thermal_displace_type
 _atom_site_B_iso_or_equiv
 _atom_site_type_symbol
Cs1 1.0000000000 0.3443671331 0.6556328669 0.5146059593  Biso 1.0 Cs
Cs2 1.0000000000 0.6556328669 0.3443671331 0.0146059593  Biso 1.0 Cs
Cs3 1.0000000000 0.5097046329 0.4902953671 0.7373862648  Biso 1.0 Cs
Cs4 1.0000000000 0.4902953671 0.5097046329 0.2373862648  Biso 1.0 Cs
I5 1.0000000000 0.3085760419 0.6914239581 0.0188785949  Biso 1.0 I
I6 1.0000000000 0.6914239581 0.3085760419 0.5188785949  Biso 1.0 I
I7 1.0000000000 0.1468182004 0.8531817996 0.2453696271  Biso 1.0 I
I8 1.0000000000 0.8531817996 0.1468182004 0.7453696271  Biso 1.0 I
I9 1.0000000000 0.9987144316 0.0012855684 0.9935269441  Biso 1.0 I
I10 1.0000000000 0.0012855684 0.9987144316 0.4935269441  Biso 1.0 I
I11 1.0000000000 0.8392799308 0.1607200692 0.2838566717  Biso 1.0 I
I12 1.0000000000 0.1607200692 0.8392799308 0.7838566717  Biso 1.0 I
Li13 1.0000000000 0.8692435236 0.1307564764 0.9499763155  Biso 1.0 Li
Li14 1.0000000000 0.1307564764 0.8692435236 0.4499763155  Biso 1.0 Li
Li15 1.0000000000 0.2794794668 0.7205205332 0.2147096226  Biso 1.0 Li
Li16 1.0000000000 0.7205205332 0.2794794668 0.7147096226  Biso 1.0 Li
