# AFLOW.org Repositories
# Cs2S2   [ORCI,ORCI,oI8] (STD_PRIM doi:10
data_Cs2S2
_pd_phase_name Cs2S2
_cell_length_a  6.4202240939
_cell_length_b  6.4202240939
_cell_length_c  6.4202240939
_cell_angle_alpha  131.7369819057
_cell_angle_beta  109.8540631118
_cell_angle_gamma  89.6941706881
_symmetry_space_group_name_H-M  'P1'
_symmetry_Int_Tables_Number  1
loop_
_symmetry_equiv_pos_site_id
_symmetry_equiv_pos_as_xyz
  1  x,y,z
loop_
 _atom_site_label
 _atom_site_occupancy
 _atom_site_fract_x
 _atom_site_fract_y
 _atom_site_fract_z
 _atom_site_thermal_displace_type
 _atom_site_B_iso_or_equiv
 _atom_site_type_symbol
Cs1 1.0000000000 0.2294388825 0.7294388825 0.5000000000  Biso 1.0 Cs
Cs2 1.0000000000 0.7705611175 0.2705611175 0.5000000000  Biso 1.0 Cs
S3 1.0000000000 0.1438862306 0.0000000000 0.1438862306  Biso 1.0 S
S4 1.0000000000 0.8561137694 0.0000000000 0.8561137694  Biso 1.0 S
