# AFLOW.org Repositories
# Cu1Mg1P1   [ORC,ORC,oP12] (STD_PRIM doi:
data_Cu1Mg1P1
_pd_phase_name Cu1Mg1P1
_cell_length_a  3.8428983660
_cell_length_b  6.5267653005
_cell_length_c  7.1856018091
_cell_angle_alpha  90.0000000000
_cell_angle_beta  90.0000000000
_cell_angle_gamma  90.0000000000
_symmetry_space_group_name_H-M  'P1'
_symmetry_Int_Tables_Number  1
loop_
_symmetry_equiv_pos_site_id
_symmetry_equiv_pos_as_xyz
  1  x,y,z
loop_
 _atom_site_label
 _atom_site_occupancy
 _atom_site_fract_x
 _atom_site_fract_y
 _atom_site_fract_z
 _atom_site_thermal_displace_type
 _atom_site_B_iso_or_equiv
 _atom_site_type_symbol
Cu1 1.0000000000 0.2500000000 0.6271057170 0.9375257281  Biso 1.0 Cu
Cu2 1.0000000000 0.7500000000 0.8728942830 0.4375257281  Biso 1.0 Cu
Cu3 1.0000000000 0.7500000000 0.3728942830 0.0624742719  Biso 1.0 Cu
Cu4 1.0000000000 0.2500000000 0.1271057170 0.5624742719  Biso 1.0 Cu
Mg5 1.0000000000 0.2500000000 0.5327458765 0.3200372130  Biso 1.0 Mg
Mg6 1.0000000000 0.7500000000 0.9672541235 0.8200372130  Biso 1.0 Mg
Mg7 1.0000000000 0.7500000000 0.4672541235 0.6799627870  Biso 1.0 Mg
Mg8 1.0000000000 0.2500000000 0.0327458765 0.1799627870  Biso 1.0 Mg
P9 1.0000000000 0.2500000000 0.2527648965 0.8782647523  Biso 1.0 P
P10 1.0000000000 0.7500000000 0.2472351035 0.3782647523  Biso 1.0 P
P11 1.0000000000 0.7500000000 0.7472351035 0.1217352477  Biso 1.0 P
P12 1.0000000000 0.2500000000 0.7527648965 0.6217352477  Biso 1.0 P
