# AFLOW.org Repositories
# Cu1Sb1Se2   [ORC,ORC,oP16] (STD_PRIM doi
data_Cu1Sb1Se2
_pd_phase_name Cu1Sb1Se2
_cell_length_a  4.0459794043
_cell_length_b  6.4551973959
_cell_length_c  15.0556563370
_cell_angle_alpha  90.0000000000
_cell_angle_beta  90.0000000000
_cell_angle_gamma  90.0000000000
_symmetry_space_group_name_H-M  'P1'
_symmetry_Int_Tables_Number  1
loop_
_symmetry_equiv_pos_site_id
_symmetry_equiv_pos_as_xyz
  1  x,y,z
loop_
 _atom_site_label
 _atom_site_occupancy
 _atom_site_fract_x
 _atom_site_fract_y
 _atom_site_fract_z
 _atom_site_thermal_displace_type
 _atom_site_B_iso_or_equiv
 _atom_site_type_symbol
Cu1 1.0000000000 0.2500000000 0.2507225237 0.1715502883  Biso 1.0 Cu
Cu2 1.0000000000 0.7500000000 0.2492774763 0.6715502883  Biso 1.0 Cu
Cu3 1.0000000000 0.7500000000 0.7492774763 0.8284497117  Biso 1.0 Cu
Cu4 1.0000000000 0.2500000000 0.7507225237 0.3284497117  Biso 1.0 Cu
Sb5 1.0000000000 0.2500000000 0.2312106361 0.9419247073  Biso 1.0 Sb
Sb6 1.0000000000 0.7500000000 0.2687893639 0.4419247073  Biso 1.0 Sb
Sb7 1.0000000000 0.7500000000 0.7687893639 0.0580752927  Biso 1.0 Sb
Sb8 1.0000000000 0.2500000000 0.7312106361 0.5580752927  Biso 1.0 Sb
Se9 1.0000000000 0.2500000000 0.6287925724 0.9049585913  Biso 1.0 Se
Se10 1.0000000000 0.7500000000 0.8712074276 0.4049585913  Biso 1.0 Se
Se11 1.0000000000 0.7500000000 0.3712074276 0.0950414087  Biso 1.0 Se
Se12 1.0000000000 0.2500000000 0.1287925724 0.5950414087  Biso 1.0 Se
Se13 1.0000000000 0.2500000000 0.8742563751 0.1742554920  Biso 1.0 Se
Se14 1.0000000000 0.7500000000 0.6257436249 0.6742554920  Biso 1.0 Se
Se15 1.0000000000 0.7500000000 0.1257436249 0.8257445080  Biso 1.0 Se
Se16 1.0000000000 0.2500000000 0.3742563751 0.3257445080  Biso 1.0 Se
