# AFLOW.org Repositories
# Cu3Se2   [TET,TET,tP10] (STD_PRIM doi:10
data_Cu3Se2
_pd_phase_name Cu3Se2
_cell_length_a  6.4493965285
_cell_length_b  6.4493965285
_cell_length_c  4.3294356620
_cell_angle_alpha  90.0000000000
_cell_angle_beta  90.0000000000
_cell_angle_gamma  90.0000000000
_symmetry_space_group_name_H-M  'P1'
_symmetry_Int_Tables_Number  1
loop_
_symmetry_equiv_pos_site_id
_symmetry_equiv_pos_as_xyz
  1  x,y,z
loop_
 _atom_site_label
 _atom_site_occupancy
 _atom_site_fract_x
 _atom_site_fract_y
 _atom_site_fract_z
 _atom_site_thermal_displace_type
 _atom_site_B_iso_or_equiv
 _atom_site_type_symbol
Cu1 1.0000000000 0.0000000000 0.0000000000 0.0000000000  Biso 1.0 Cu
Cu2 1.0000000000 0.5000000000 0.5000000000 0.0000000000  Biso 1.0 Cu
Cu3 1.0000000000 0.1465434149 0.3534565851 0.7505114772  Biso 1.0 Cu
Cu4 1.0000000000 0.8534565851 0.6465434149 0.7505114772  Biso 1.0 Cu
Cu5 1.0000000000 0.3534565851 0.8534565851 0.2494885228  Biso 1.0 Cu
Cu6 1.0000000000 0.6465434149 0.1465434149 0.2494885228  Biso 1.0 Cu
Se7 1.0000000000 0.2732855259 0.2267144741 0.2577746175  Biso 1.0 Se
Se8 1.0000000000 0.7267144741 0.7732855259 0.2577746175  Biso 1.0 Se
Se9 1.0000000000 0.2267144741 0.7267144741 0.7422253825  Biso 1.0 Se
Se10 1.0000000000 0.7732855259 0.2732855259 0.7422253825  Biso 1.0 Se
