# AFLOW.org Repositories
# Cu7Hf6Zn16   [FCC,FCC,cF116] (STD_PRIM d
data_Cu7Hf6Zn16
_pd_phase_name Cu7Hf6Zn16
_cell_length_a  8.4849496161
_cell_length_b  8.4849496161
_cell_length_c  8.4849496161
_cell_angle_alpha  60.0000000000
_cell_angle_beta  60.0000000000
_cell_angle_gamma  60.0000000000
_symmetry_space_group_name_H-M  'P1'
_symmetry_Int_Tables_Number  1
loop_
_symmetry_equiv_pos_site_id
_symmetry_equiv_pos_as_xyz
  1  x,y,z
loop_
 _atom_site_label
 _atom_site_occupancy
 _atom_site_fract_x
 _atom_site_fract_y
 _atom_site_fract_z
 _atom_site_thermal_displace_type
 _atom_site_B_iso_or_equiv
 _atom_site_type_symbol
Cu1 1.0000000000 0.0000000000 0.0000000000 0.0000000000  Biso 1.0 Cu
Cu2 1.0000000000 0.0000000000 0.5000000000 0.0000000000  Biso 1.0 Cu
Cu3 1.0000000000 0.5000000000 0.0000000000 0.5000000000  Biso 1.0 Cu
Cu4 1.0000000000 0.5000000000 0.5000000000 0.0000000000  Biso 1.0 Cu
Cu5 1.0000000000 0.0000000000 0.0000000000 0.5000000000  Biso 1.0 Cu
Cu6 1.0000000000 0.0000000000 0.5000000000 0.5000000000  Biso 1.0 Cu
Cu7 1.0000000000 0.5000000000 0.0000000000 0.0000000000  Biso 1.0 Cu
Hf8 1.0000000000 0.3123246767 0.6876753233 0.3123246767  Biso 1.0 Hf
Hf9 1.0000000000 0.6876753233 0.3123246767 0.6876753233  Biso 1.0 Hf
Hf10 1.0000000000 0.6876753233 0.6876753233 0.3123246767  Biso 1.0 Hf
Hf11 1.0000000000 0.3123246767 0.3123246767 0.6876753233  Biso 1.0 Hf
Hf12 1.0000000000 0.3123246767 0.6876753233 0.6876753233  Biso 1.0 Hf
Hf13 1.0000000000 0.6876753233 0.3123246767 0.3123246767  Biso 1.0 Hf
Zn14 1.0000000000 0.1189857175 0.6430428474 0.1189857175  Biso 1.0 Zn
Zn15 1.0000000000 0.1189857175 0.1189857175 0.6430428474  Biso 1.0 Zn
Zn16 1.0000000000 0.6430428474 0.1189857175 0.1189857175  Biso 1.0 Zn
Zn17 1.0000000000 0.1189857175 0.1189857175 0.1189857175  Biso 1.0 Zn
Zn18 1.0000000000 0.8810142825 0.8810142825 0.3569571526  Biso 1.0 Zn
Zn19 1.0000000000 0.8810142825 0.3569571526 0.8810142825  Biso 1.0 Zn
Zn20 1.0000000000 0.3569571526 0.8810142825 0.8810142825  Biso 1.0 Zn
Zn21 1.0000000000 0.8810142825 0.8810142825 0.8810142825  Biso 1.0 Zn
Zn22 1.0000000000 0.3321686293 0.0034941121 0.3321686293  Biso 1.0 Zn
Zn23 1.0000000000 0.3321686293 0.3321686293 0.0034941121  Biso 1.0 Zn
Zn24 1.0000000000 0.0034941121 0.3321686293 0.3321686293  Biso 1.0 Zn
Zn25 1.0000000000 0.3321686293 0.3321686293 0.3321686293  Biso 1.0 Zn
Zn26 1.0000000000 0.6678313707 0.6678313707 0.9965058879  Biso 1.0 Zn
Zn27 1.0000000000 0.6678313707 0.9965058879 0.6678313707  Biso 1.0 Zn
Zn28 1.0000000000 0.9965058879 0.6678313707 0.6678313707  Biso 1.0 Zn
Zn29 1.0000000000 0.6678313707 0.6678313707 0.6678313707  Biso 1.0 Zn
