# AFLOW.org Repositories
# Dy1Ge1Ni1   [ORC,ORC,oP12] (STD_PRIM doi
data_Dy1Ge1Ni1
_pd_phase_name Dy1Ge1Ni1
_cell_length_a  4.2165209701
_cell_length_b  6.9201922472
_cell_length_c  7.2739570113
_cell_angle_alpha  90.0000000000
_cell_angle_beta  90.0000000000
_cell_angle_gamma  90.0000000000
_symmetry_space_group_name_H-M  'P1'
_symmetry_Int_Tables_Number  1
loop_
_symmetry_equiv_pos_site_id
_symmetry_equiv_pos_as_xyz
  1  x,y,z
loop_
 _atom_site_label
 _atom_site_occupancy
 _atom_site_fract_x
 _atom_site_fract_y
 _atom_site_fract_z
 _atom_site_thermal_displace_type
 _atom_site_B_iso_or_equiv
 _atom_site_type_symbol
Dy1 1.0000000000 0.2500000000 0.9931419866 0.2941678707  Biso 1.0 Dy
Dy2 1.0000000000 0.7500000000 0.5068580134 0.7941678707  Biso 1.0 Dy
Dy3 1.0000000000 0.7500000000 0.0068580134 0.7058321293  Biso 1.0 Dy
Dy4 1.0000000000 0.2500000000 0.4931419866 0.2058321293  Biso 1.0 Dy
Ge5 1.0000000000 0.2500000000 0.3036976458 0.5866584134  Biso 1.0 Ge
Ge6 1.0000000000 0.7500000000 0.1963023542 0.0866584134  Biso 1.0 Ge
Ge7 1.0000000000 0.7500000000 0.6963023542 0.4133415866  Biso 1.0 Ge
Ge8 1.0000000000 0.2500000000 0.8036976458 0.9133415866  Biso 1.0 Ge
Ni9 1.0000000000 0.2500000000 0.1934871607 0.9161367954  Biso 1.0 Ni
Ni10 1.0000000000 0.7500000000 0.3065128393 0.4161367954  Biso 1.0 Ni
Ni11 1.0000000000 0.7500000000 0.8065128393 0.0838632046  Biso 1.0 Ni
Ni12 1.0000000000 0.2500000000 0.6934871607 0.5838632046  Biso 1.0 Ni
