# AFLOW.org Repositories
# Dy1Hg3   [HEX,HEX,hP8] (STD_PRIM doi:10.
data_Dy1Hg3
_pd_phase_name Dy1Hg3
_cell_length_a  6.6453708788
_cell_length_b  6.6453708788
_cell_length_c  4.9930103911
_cell_angle_alpha  90.0000000000
_cell_angle_beta  90.0000000000
_cell_angle_gamma  120.0000000000
_symmetry_space_group_name_H-M  'P1'
_symmetry_Int_Tables_Number  1
loop_
_symmetry_equiv_pos_site_id
_symmetry_equiv_pos_as_xyz
  1  x,y,z
loop_
 _atom_site_label
 _atom_site_occupancy
 _atom_site_fract_x
 _atom_site_fract_y
 _atom_site_fract_z
 _atom_site_thermal_displace_type
 _atom_site_B_iso_or_equiv
 _atom_site_type_symbol
Dy1 1.0000000000 0.6666878821 0.3333757643 0.2500000000  Biso 1.0 Dy
Dy2 1.0000000000 0.3333121179 0.6666242357 0.7500000000  Biso 1.0 Dy
Hg3 1.0000000000 0.6667534329 0.8333859997 0.2500000000  Biso 1.0 Hg
Hg4 1.0000000000 0.1666325668 0.8333859997 0.2500000000  Biso 1.0 Hg
Hg5 1.0000000000 0.1666168660 0.3332337320 0.2500000000  Biso 1.0 Hg
Hg6 1.0000000000 0.3332465671 0.1666140003 0.7500000000  Biso 1.0 Hg
Hg7 1.0000000000 0.8333674332 0.1666140003 0.7500000000  Biso 1.0 Hg
Hg8 1.0000000000 0.8333831340 0.6667662680 0.7500000000  Biso 1.0 Hg
