# AFLOW.org Repositories
# Dy1In1Pt4   [FCC,FCC,cF24] (STD_PRIM doi
data_Dy1In1Pt4
_pd_phase_name Dy1In1Pt4
_cell_length_a  5.3655167816
_cell_length_b  5.3655167816
_cell_length_c  5.3655167816
_cell_angle_alpha  60.0000000000
_cell_angle_beta  60.0000000000
_cell_angle_gamma  60.0000000000
_symmetry_space_group_name_H-M  'P1'
_symmetry_Int_Tables_Number  1
loop_
_symmetry_equiv_pos_site_id
_symmetry_equiv_pos_as_xyz
  1  x,y,z
loop_
 _atom_site_label
 _atom_site_occupancy
 _atom_site_fract_x
 _atom_site_fract_y
 _atom_site_fract_z
 _atom_site_thermal_displace_type
 _atom_site_B_iso_or_equiv
 _atom_site_type_symbol
Dy1 1.0000000000 0.0000000000 0.0000000000 0.0000000000  Biso 1.0 Dy
In2 1.0000000000 0.2500000000 0.2500000000 0.2500000000  Biso 1.0 In
Pt3 1.0000000000 0.6247262170 0.6247262170 0.6247262170  Biso 1.0 Pt
Pt4 1.0000000000 0.1258213490 0.6247262170 0.6247262170  Biso 1.0 Pt
Pt5 1.0000000000 0.6247262170 0.6247262170 0.1258213490  Biso 1.0 Pt
Pt6 1.0000000000 0.6247262170 0.1258213490 0.6247262170  Biso 1.0 Pt
