# AFLOW.org Repositories
# Dy1O4P1   [BCT,BCT1,tI24] (STD_PRIM doi:
data_Dy1O4P1
_pd_phase_name Dy1O4P1
_cell_length_a  5.7785400513
_cell_length_b  5.7785400513
_cell_length_c  5.7785400513
_cell_angle_alpha  105.9729959686
_cell_angle_beta  105.9729959686
_cell_angle_gamma  116.7200407939
_symmetry_space_group_name_H-M  'P1'
_symmetry_Int_Tables_Number  1
loop_
_symmetry_equiv_pos_site_id
_symmetry_equiv_pos_as_xyz
  1  x,y,z
loop_
 _atom_site_label
 _atom_site_occupancy
 _atom_site_fract_x
 _atom_site_fract_y
 _atom_site_fract_z
 _atom_site_thermal_displace_type
 _atom_site_B_iso_or_equiv
 _atom_site_type_symbol
Dy1 1.0000000000 0.1250000000 0.8750000000 0.7500000000  Biso 1.0 Dy
Dy2 1.0000000000 0.8750000000 0.1250000000 0.2500000000  Biso 1.0 Dy
O3 1.0000000000 0.2151936669 0.2906648156 0.0754711487  Biso 1.0 O
O4 1.0000000000 0.2151936669 0.6397225182 0.4245288513  Biso 1.0 O
O5 1.0000000000 0.2906648156 0.2151936669 0.5754711487  Biso 1.0 O
O6 1.0000000000 0.6397225182 0.2151936669 0.9245288513  Biso 1.0 O
O7 1.0000000000 0.7848063331 0.3602774818 0.5754711487  Biso 1.0 O
O8 1.0000000000 0.7848063331 0.7093351844 0.9245288513  Biso 1.0 O
O9 1.0000000000 0.7093351844 0.7848063331 0.4245288513  Biso 1.0 O
O10 1.0000000000 0.3602774818 0.7848063331 0.0754711487  Biso 1.0 O
P11 1.0000000000 0.3750000000 0.6250000000 0.2500000000  Biso 1.0 P
P12 1.0000000000 0.6250000000 0.3750000000 0.7500000000  Biso 1.0 P
