# AFLOW.org Repositories
# Dy2O1S2   [ORC,ORC,oP20] (STD_PRIM doi:1
data_Dy2O1S2
_pd_phase_name Dy2O1S2
_cell_length_a  3.8144285863
_cell_length_b  6.7480374353
_cell_length_c  15.6307095001
_cell_angle_alpha  90.0000000000
_cell_angle_beta  90.0000000000
_cell_angle_gamma  90.0000000000
_symmetry_space_group_name_H-M  'P1'
_symmetry_Int_Tables_Number  1
loop_
_symmetry_equiv_pos_site_id
_symmetry_equiv_pos_as_xyz
  1  x,y,z
loop_
 _atom_site_label
 _atom_site_occupancy
 _atom_site_fract_x
 _atom_site_fract_y
 _atom_site_fract_z
 _atom_site_thermal_displace_type
 _atom_site_B_iso_or_equiv
 _atom_site_type_symbol
Dy1 1.0000000000 0.7500000000 0.2938248231 0.4595287024  Biso 1.0 Dy
Dy2 1.0000000000 0.2500000000 0.7938248231 0.0404712976  Biso 1.0 Dy
Dy3 1.0000000000 0.2500000000 0.7061751769 0.5404712976  Biso 1.0 Dy
Dy4 1.0000000000 0.7500000000 0.2061751769 0.9595287024  Biso 1.0 Dy
Dy5 1.0000000000 0.7500000000 0.7443298708 0.3352987276  Biso 1.0 Dy
Dy6 1.0000000000 0.2500000000 0.2443298708 0.1647012724  Biso 1.0 Dy
Dy7 1.0000000000 0.2500000000 0.2556701292 0.6647012724  Biso 1.0 Dy
Dy8 1.0000000000 0.7500000000 0.7556701292 0.8352987276  Biso 1.0 Dy
O9 1.0000000000 0.7500000000 0.6316196793 0.4691786226  Biso 1.0 O
O10 1.0000000000 0.2500000000 0.1316196793 0.0308213774  Biso 1.0 O
O11 1.0000000000 0.2500000000 0.3683803207 0.5308213774  Biso 1.0 O
O12 1.0000000000 0.7500000000 0.8683803207 0.9691786226  Biso 1.0 O
S13 1.0000000000 0.7500000000 0.4870639360 0.1000900143  Biso 1.0 S
S14 1.0000000000 0.2500000000 0.9870639360 0.3999099857  Biso 1.0 S
S15 1.0000000000 0.2500000000 0.5129360640 0.8999099857  Biso 1.0 S
S16 1.0000000000 0.7500000000 0.0129360640 0.6000900143  Biso 1.0 S
S17 1.0000000000 0.7500000000 0.9545410128 0.1811216579  Biso 1.0 S
S18 1.0000000000 0.2500000000 0.4545410128 0.3188783421  Biso 1.0 S
S19 1.0000000000 0.2500000000 0.0454589872 0.8188783421  Biso 1.0 S
S20 1.0000000000 0.7500000000 0.5454589872 0.6811216579  Biso 1.0 S
