# AFLOW.org Repositories
# Dy3Ge13Os4   [CUB,CUB,cP40] (STD_PRIM do
data_Dy3Ge13Os4
_pd_phase_name Dy3Ge13Os4
_cell_length_a  9.0637878307
_cell_length_b  9.0637878307
_cell_length_c  9.0637878307
_cell_angle_alpha  90.0000000000
_cell_angle_beta  90.0000000000
_cell_angle_gamma  90.0000000000
_symmetry_space_group_name_H-M  'P1'
_symmetry_Int_Tables_Number  1
loop_
_symmetry_equiv_pos_site_id
_symmetry_equiv_pos_as_xyz
  1  x,y,z
loop_
 _atom_site_label
 _atom_site_occupancy
 _atom_site_fract_x
 _atom_site_fract_y
 _atom_site_fract_z
 _atom_site_thermal_displace_type
 _atom_site_B_iso_or_equiv
 _atom_site_type_symbol
Dy1 1.0000000000 0.7500000000 0.0000000000 0.5000000000  Biso 1.0 Dy
Dy2 1.0000000000 0.2500000000 0.0000000000 0.5000000000  Biso 1.0 Dy
Dy3 1.0000000000 0.5000000000 0.7500000000 0.0000000000  Biso 1.0 Dy
Dy4 1.0000000000 0.5000000000 0.2500000000 0.0000000000  Biso 1.0 Dy
Dy5 1.0000000000 0.0000000000 0.5000000000 0.2500000000  Biso 1.0 Dy
Dy6 1.0000000000 0.0000000000 0.5000000000 0.7500000000  Biso 1.0 Dy
Ge7 1.0000000000 0.0000000000 0.0000000000 0.0000000000  Biso 1.0 Ge
Ge8 1.0000000000 0.5000000000 0.5000000000 0.5000000000  Biso 1.0 Ge
Ge9 1.0000000000 0.0000000000 0.8546201309 0.2983292006  Biso 1.0 Ge
Ge10 1.0000000000 0.0000000000 0.1453798691 0.2983292006  Biso 1.0 Ge
Ge11 1.0000000000 0.0000000000 0.8546201309 0.7016707994  Biso 1.0 Ge
Ge12 1.0000000000 0.0000000000 0.1453798691 0.7016707994  Biso 1.0 Ge
Ge13 1.0000000000 0.7016707994 0.0000000000 0.1453798691  Biso 1.0 Ge
Ge14 1.0000000000 0.7016707994 0.0000000000 0.8546201309  Biso 1.0 Ge
Ge15 1.0000000000 0.2983292006 0.0000000000 0.1453798691  Biso 1.0 Ge
Ge16 1.0000000000 0.2983292006 0.0000000000 0.8546201309  Biso 1.0 Ge
Ge17 1.0000000000 0.8546201309 0.7016707994 0.0000000000  Biso 1.0 Ge
Ge18 1.0000000000 0.1453798691 0.7016707994 0.0000000000  Biso 1.0 Ge
Ge19 1.0000000000 0.8546201309 0.2983292006 0.0000000000  Biso 1.0 Ge
Ge20 1.0000000000 0.1453798691 0.2983292006 0.0000000000  Biso 1.0 Ge
Ge21 1.0000000000 0.3546201309 0.5000000000 0.2016707994  Biso 1.0 Ge
Ge22 1.0000000000 0.6453798691 0.5000000000 0.2016707994  Biso 1.0 Ge
Ge23 1.0000000000 0.3546201309 0.5000000000 0.7983292006  Biso 1.0 Ge
Ge24 1.0000000000 0.6453798691 0.5000000000 0.7983292006  Biso 1.0 Ge
Ge25 1.0000000000 0.5000000000 0.2016707994 0.3546201309  Biso 1.0 Ge
Ge26 1.0000000000 0.5000000000 0.2016707994 0.6453798691  Biso 1.0 Ge
Ge27 1.0000000000 0.5000000000 0.7983292006 0.3546201309  Biso 1.0 Ge
Ge28 1.0000000000 0.5000000000 0.7983292006 0.6453798691  Biso 1.0 Ge
Ge29 1.0000000000 0.2016707994 0.3546201309 0.5000000000  Biso 1.0 Ge
Ge30 1.0000000000 0.2016707994 0.6453798691 0.5000000000  Biso 1.0 Ge
Ge31 1.0000000000 0.7983292006 0.3546201309 0.5000000000  Biso 1.0 Ge
Ge32 1.0000000000 0.7983292006 0.6453798691 0.5000000000  Biso 1.0 Ge
Os33 1.0000000000 0.7500000000 0.7500000000 0.2500000000  Biso 1.0 Os
Os34 1.0000000000 0.2500000000 0.2500000000 0.2500000000  Biso 1.0 Os
Os35 1.0000000000 0.2500000000 0.7500000000 0.7500000000  Biso 1.0 Os
Os36 1.0000000000 0.7500000000 0.2500000000 0.7500000000  Biso 1.0 Os
Os37 1.0000000000 0.2500000000 0.2500000000 0.7500000000  Biso 1.0 Os
Os38 1.0000000000 0.7500000000 0.7500000000 0.7500000000  Biso 1.0 Os
Os39 1.0000000000 0.7500000000 0.2500000000 0.2500000000  Biso 1.0 Os
Os40 1.0000000000 0.2500000000 0.7500000000 0.2500000000  Biso 1.0 Os
