# AFLOW.org Repositories
# Dy3Pt1   [ORC,ORC,oP16] (STD_PRIM doi:10
data_Dy3Pt1
_pd_phase_name Dy3Pt1
_cell_length_a  6.4703183519
_cell_length_b  7.0015467954
_cell_length_c  9.5952736892
_cell_angle_alpha  90.0000000000
_cell_angle_beta  90.0000000000
_cell_angle_gamma  90.0000000000
_symmetry_space_group_name_H-M  'P1'
_symmetry_Int_Tables_Number  1
loop_
_symmetry_equiv_pos_site_id
_symmetry_equiv_pos_as_xyz
  1  x,y,z
loop_
 _atom_site_label
 _atom_site_occupancy
 _atom_site_fract_x
 _atom_site_fract_y
 _atom_site_fract_z
 _atom_site_thermal_displace_type
 _atom_site_B_iso_or_equiv
 _atom_site_type_symbol
Dy1 1.0000000000 0.8226914347 0.1809397627 0.9386799711  Biso 1.0 Dy
Dy2 1.0000000000 0.3226914347 0.3190602373 0.0613200289  Biso 1.0 Dy
Dy3 1.0000000000 0.1773085653 0.8190602373 0.4386799711  Biso 1.0 Dy
Dy4 1.0000000000 0.6773085653 0.6809397627 0.5613200289  Biso 1.0 Dy
Dy5 1.0000000000 0.1773085653 0.8190602373 0.0613200289  Biso 1.0 Dy
Dy6 1.0000000000 0.6773085653 0.6809397627 0.9386799711  Biso 1.0 Dy
Dy7 1.0000000000 0.8226914347 0.1809397627 0.5613200289  Biso 1.0 Dy
Dy8 1.0000000000 0.3226914347 0.3190602373 0.4386799711  Biso 1.0 Dy
Dy9 1.0000000000 0.3647570216 0.0260223993 0.7500000000  Biso 1.0 Dy
Dy10 1.0000000000 0.8647570216 0.4739776007 0.2500000000  Biso 1.0 Dy
Dy11 1.0000000000 0.6352429784 0.9739776007 0.2500000000  Biso 1.0 Dy
Dy12 1.0000000000 0.1352429784 0.5260223993 0.7500000000  Biso 1.0 Dy
Pt13 1.0000000000 0.5545496561 0.3874032049 0.7500000000  Biso 1.0 Pt
Pt14 1.0000000000 0.0545496561 0.1125967951 0.2500000000  Biso 1.0 Pt
Pt15 1.0000000000 0.4454503439 0.6125967951 0.2500000000  Biso 1.0 Pt
Pt16 1.0000000000 0.9454503439 0.8874032049 0.7500000000  Biso 1.0 Pt
