# AFLOW.org Repositories
# Er1Ge1Rh1   [ORC,ORC,oP12] (STD_PRIM doi
data_Er1Ge1Rh1
_pd_phase_name Er1Ge1Rh1
_cell_length_a  4.2937089011
_cell_length_b  6.8689366001
_cell_length_c  7.5302123997
_cell_angle_alpha  90.0000000000
_cell_angle_beta  90.0000000000
_cell_angle_gamma  90.0000000000
_symmetry_space_group_name_H-M  'P1'
_symmetry_Int_Tables_Number  1
loop_
_symmetry_equiv_pos_site_id
_symmetry_equiv_pos_as_xyz
  1  x,y,z
loop_
 _atom_site_label
 _atom_site_occupancy
 _atom_site_fract_x
 _atom_site_fract_y
 _atom_site_fract_z
 _atom_site_thermal_displace_type
 _atom_site_B_iso_or_equiv
 _atom_site_type_symbol
Er1 1.0000000000 0.2500000000 0.5028251762 0.6960139128  Biso 1.0 Er
Er2 1.0000000000 0.7500000000 0.9971748238 0.1960139128  Biso 1.0 Er
Er3 1.0000000000 0.7500000000 0.4971748238 0.3039860872  Biso 1.0 Er
Er4 1.0000000000 0.2500000000 0.0028251762 0.8039860872  Biso 1.0 Er
Ge5 1.0000000000 0.2500000000 0.7882430201 0.3953237076  Biso 1.0 Ge
Ge6 1.0000000000 0.7500000000 0.7117569799 0.8953237076  Biso 1.0 Ge
Ge7 1.0000000000 0.7500000000 0.2117569799 0.6046762924  Biso 1.0 Ge
Ge8 1.0000000000 0.2500000000 0.2882430201 0.1046762924  Biso 1.0 Ge
Rh9 1.0000000000 0.2500000000 0.1574945372 0.4314355497  Biso 1.0 Rh
Rh10 1.0000000000 0.7500000000 0.3425054628 0.9314355497  Biso 1.0 Rh
Rh11 1.0000000000 0.7500000000 0.8425054628 0.5685644503  Biso 1.0 Rh
Rh12 1.0000000000 0.2500000000 0.6574945372 0.0685644503  Biso 1.0 Rh
