# AFLOW.org Repositories
# Er1In1Pt1   [HEX,HEX,hP9] (STD_PRIM doi:
data_Er1In1Pt1
_pd_phase_name Er1In1Pt1
_cell_length_a  7.5805149732
_cell_length_b  7.5805149732
_cell_length_c  3.8556761561
_cell_angle_alpha  90.0000000000
_cell_angle_beta  90.0000000000
_cell_angle_gamma  120.0000000000
_symmetry_space_group_name_H-M  'P1'
_symmetry_Int_Tables_Number  1
loop_
_symmetry_equiv_pos_site_id
_symmetry_equiv_pos_as_xyz
  1  x,y,z
loop_
 _atom_site_label
 _atom_site_occupancy
 _atom_site_fract_x
 _atom_site_fract_y
 _atom_site_fract_z
 _atom_site_thermal_displace_type
 _atom_site_B_iso_or_equiv
 _atom_site_type_symbol
Er1 1.0000000000 0.0000000000 0.4085339840 0.5000000000  Biso 1.0 Er
Er2 1.0000000000 0.5914660160 0.5914660160 0.5000000000  Biso 1.0 Er
Er3 1.0000000000 0.4085356929 0.0000000000 0.5000000000  Biso 1.0 Er
In4 1.0000000000 0.0000000000 0.7415748696 0.0000000000  Biso 1.0 In
In5 1.0000000000 0.2584251304 0.2584251304 0.0000000000  Biso 1.0 In
In6 1.0000000000 0.7415692183 0.0000000000 0.0000000000  Biso 1.0 In
Pt7 1.0000000000 0.0000000000 0.0000000000 0.5000000000  Biso 1.0 Pt
Pt8 1.0000000000 0.6666725291 0.3333434405 0.0000000000  Biso 1.0 Pt
Pt9 1.0000000000 0.3333290885 0.6666565595 0.0000000000  Biso 1.0 Pt
