# AFLOW.org Repositories
# Er1Pd1Tl1   [HEX,HEX,hP9] (STD_PRIM doi:
data_Er1Pd1Tl1
_pd_phase_name Er1Pd1Tl1
_cell_length_a  7.7975921299
_cell_length_b  7.7975921299
_cell_length_c  3.7741375489
_cell_angle_alpha  90.0000000000
_cell_angle_beta  90.0000000000
_cell_angle_gamma  120.0000000000
_symmetry_space_group_name_H-M  'P1'
_symmetry_Int_Tables_Number  1
loop_
_symmetry_equiv_pos_site_id
_symmetry_equiv_pos_as_xyz
  1  x,y,z
loop_
 _atom_site_label
 _atom_site_occupancy
 _atom_site_fract_x
 _atom_site_fract_y
 _atom_site_fract_z
 _atom_site_thermal_displace_type
 _atom_site_B_iso_or_equiv
 _atom_site_type_symbol
Er1 1.0000000000 0.5949638480 0.0000000000 0.5000000000  Biso 1.0 Er
Er2 1.0000000000 0.0000000000 0.5949638480 0.5000000000  Biso 1.0 Er
Er3 1.0000000000 0.4050418538 0.4050418538 0.5000000000  Biso 1.0 Er
Pd4 1.0000000000 0.0000000000 0.0000000000 0.5000000000  Biso 1.0 Pd
Pd5 1.0000000000 0.3333351544 0.6666702914 0.0000000000  Biso 1.0 Pd
Pd6 1.0000000000 0.6666702914 0.3333351544 0.0000000000  Biso 1.0 Pd
Tl7 1.0000000000 0.2664408991 0.0000000000 0.0000000000  Biso 1.0 Tl
Tl8 1.0000000000 0.0000000000 0.2664408991 0.0000000000  Biso 1.0 Tl
Tl9 1.0000000000 0.7335568142 0.7335568142 0.0000000000  Biso 1.0 Tl
