# AFLOW.org Repositories
# Er3Ga1O6   [ORCC,ORCC,oS40] (STD_PRIM do
data_Er3Ga1O6
_pd_phase_name Er3Ga1O6
_cell_length_a  7.0700906656
_cell_length_b  7.0700906656
_cell_length_c  5.3908632023
_cell_angle_alpha  90.0000000000
_cell_angle_beta  90.0000000000
_cell_angle_gamma  102.8253256159
_symmetry_space_group_name_H-M  'P1'
_symmetry_Int_Tables_Number  1
loop_
_symmetry_equiv_pos_site_id
_symmetry_equiv_pos_as_xyz
  1  x,y,z
loop_
 _atom_site_label
 _atom_site_occupancy
 _atom_site_fract_x
 _atom_site_fract_y
 _atom_site_fract_z
 _atom_site_thermal_displace_type
 _atom_site_B_iso_or_equiv
 _atom_site_type_symbol
Er1 1.0000000000 0.0880836419 0.2982621425 0.4782980093  Biso 1.0 Er
Er2 1.0000000000 0.9119163581 0.7017378575 0.9782980093  Biso 1.0 Er
Er3 1.0000000000 0.2982621425 0.0880836419 0.9782980093  Biso 1.0 Er
Er4 1.0000000000 0.7017378575 0.9119163581 0.4782980093  Biso 1.0 Er
Er5 1.0000000000 0.6012604331 0.3987395669 0.4289851610  Biso 1.0 Er
Er6 1.0000000000 0.3987395669 0.6012604331 0.9289851610  Biso 1.0 Er
Ga7 1.0000000000 0.8058797211 0.1941202789 0.0092536935  Biso 1.0 Ga
Ga8 1.0000000000 0.1941202789 0.8058797211 0.5092536935  Biso 1.0 Ga
O9 1.0000000000 0.8935873893 0.4243688242 0.1900607887  Biso 1.0 O
O10 1.0000000000 0.1064126107 0.5756311758 0.6900607887  Biso 1.0 O
O11 1.0000000000 0.4243688242 0.8935873893 0.6900607887  Biso 1.0 O
O12 1.0000000000 0.5756311758 0.1064126107 0.1900607887  Biso 1.0 O
O13 1.0000000000 0.3217505636 0.3571156330 0.2038234319  Biso 1.0 O
O14 1.0000000000 0.6782494364 0.6428843670 0.7038234319  Biso 1.0 O
O15 1.0000000000 0.3571156330 0.3217505636 0.7038234319  Biso 1.0 O
O16 1.0000000000 0.6428843670 0.6782494364 0.2038234319  Biso 1.0 O
O17 1.0000000000 0.9604459893 0.0395540107 0.1582046931  Biso 1.0 O
O18 1.0000000000 0.0395540107 0.9604459893 0.6582046931  Biso 1.0 O
O19 1.0000000000 0.7845759558 0.2154240442 0.6689719927  Biso 1.0 O
O20 1.0000000000 0.2154240442 0.7845759558 0.1689719927  Biso 1.0 O
