# AFLOW.org Repositories
# Er3P6Pd20   [FCC,FCC,cF116] (STD_PRIM do
data_Er3P6Pd20
_pd_phase_name Er3P6Pd20
_cell_length_a  8.6216168118
_cell_length_b  8.6216168118
_cell_length_c  8.6216168118
_cell_angle_alpha  60.0000000000
_cell_angle_beta  60.0000000000
_cell_angle_gamma  60.0000000000
_symmetry_space_group_name_H-M  'P1'
_symmetry_Int_Tables_Number  1
loop_
_symmetry_equiv_pos_site_id
_symmetry_equiv_pos_as_xyz
  1  x,y,z
loop_
 _atom_site_label
 _atom_site_occupancy
 _atom_site_fract_x
 _atom_site_fract_y
 _atom_site_fract_z
 _atom_site_thermal_displace_type
 _atom_site_B_iso_or_equiv
 _atom_site_type_symbol
Er1 1.0000000000 0.0000000000 0.0000000000 0.0000000000  Biso 1.0 Er
Er2 1.0000000000 0.2500000000 0.2500000000 0.2500000000  Biso 1.0 Er
Er3 1.0000000000 0.7500000000 0.7500000000 0.7500000000  Biso 1.0 Er
P4 1.0000000000 0.7352565577 0.2647434423 0.7352565577  Biso 1.0 P
P5 1.0000000000 0.2647434423 0.7352565577 0.2647434423  Biso 1.0 P
P6 1.0000000000 0.7352565577 0.7352565577 0.2647434423  Biso 1.0 P
P7 1.0000000000 0.2647434423 0.2647434423 0.7352565577  Biso 1.0 P
P8 1.0000000000 0.2647434423 0.7352565577 0.7352565577  Biso 1.0 P
P9 1.0000000000 0.7352565577 0.2647434423 0.2647434423  Biso 1.0 P
Pd10 1.0000000000 0.0000000000 0.0000000000 0.3439484493  Biso 1.0 Pd
Pd11 1.0000000000 0.6560515507 0.3439484493 0.0000000000  Biso 1.0 Pd
Pd12 1.0000000000 0.0000000000 0.0000000000 0.6560515507  Biso 1.0 Pd
Pd13 1.0000000000 0.3439484493 0.6560515507 0.0000000000  Biso 1.0 Pd
Pd14 1.0000000000 0.3439484493 0.0000000000 0.0000000000  Biso 1.0 Pd
Pd15 1.0000000000 0.0000000000 0.6560515507 0.3439484493  Biso 1.0 Pd
Pd16 1.0000000000 0.6560515507 0.0000000000 0.0000000000  Biso 1.0 Pd
Pd17 1.0000000000 0.0000000000 0.3439484493 0.6560515507  Biso 1.0 Pd
Pd18 1.0000000000 0.0000000000 0.3439484493 0.0000000000  Biso 1.0 Pd
Pd19 1.0000000000 0.3439484493 0.0000000000 0.6560515507  Biso 1.0 Pd
Pd20 1.0000000000 0.0000000000 0.6560515507 0.0000000000  Biso 1.0 Pd
Pd21 1.0000000000 0.6560515507 0.0000000000 0.3439484493  Biso 1.0 Pd
Pd22 1.0000000000 0.8498876463 0.3833707846 0.3833707846  Biso 1.0 Pd
Pd23 1.0000000000 0.3833707846 0.3833707846 0.3833707846  Biso 1.0 Pd
Pd24 1.0000000000 0.3833707846 0.8498876463 0.3833707846  Biso 1.0 Pd
Pd25 1.0000000000 0.3833707846 0.3833707846 0.8498876463  Biso 1.0 Pd
Pd26 1.0000000000 0.6166292154 0.6166292154 0.6166292154  Biso 1.0 Pd
Pd27 1.0000000000 0.1501123537 0.6166292154 0.6166292154  Biso 1.0 Pd
Pd28 1.0000000000 0.6166292154 0.1501123537 0.6166292154  Biso 1.0 Pd
Pd29 1.0000000000 0.6166292154 0.6166292154 0.1501123537  Biso 1.0 Pd
