# AFLOW.org Repositories
# F1S1Y1   [HEX,HEX,hP12] (STD_PRIM doi:10
data_F1S1Y1
_pd_phase_name F1S1Y1
_cell_length_a  4.0780382330
_cell_length_b  4.0780382330
_cell_length_c  16.8196155827
_cell_angle_alpha  90.0000000000
_cell_angle_beta  90.0000000000
_cell_angle_gamma  120.0000000000
_symmetry_space_group_name_H-M  'P1'
_symmetry_Int_Tables_Number  1
loop_
_symmetry_equiv_pos_site_id
_symmetry_equiv_pos_as_xyz
  1  x,y,z
loop_
 _atom_site_label
 _atom_site_occupancy
 _atom_site_fract_x
 _atom_site_fract_y
 _atom_site_fract_z
 _atom_site_thermal_displace_type
 _atom_site_B_iso_or_equiv
 _atom_site_type_symbol
F1 1.0000000000 0.0000000000 0.0000000000 0.2500000000  Biso 1.0 F
F2 1.0000000000 0.0000000000 0.0000000000 0.7500000000  Biso 1.0 F
F3 1.0000000000 0.6666722030 0.3333444060 0.7500000000  Biso 1.0 F
F4 1.0000000000 0.3333277970 0.6666555940 0.2500000000  Biso 1.0 F
S5 1.0000000000 0.6666857548 0.3333715096 0.0853807186  Biso 1.0 S
S6 1.0000000000 0.3333142452 0.6666284904 0.5853807186  Biso 1.0 S
S7 1.0000000000 0.3333142452 0.6666284904 0.9146192814  Biso 1.0 S
S8 1.0000000000 0.6666857548 0.3333715096 0.4146192814  Biso 1.0 S
Y9 1.0000000000 0.0000000000 0.0000000000 0.0000000000  Biso 1.0 Y
Y10 1.0000000000 0.0000000000 0.0000000000 0.5000000000  Biso 1.0 Y
Y11 1.0000000000 0.6666824665 0.3333649329 0.2500000000  Biso 1.0 Y
Y12 1.0000000000 0.3333175335 0.6666350671 0.7500000000  Biso 1.0 Y
