# AFLOW.org Repositories
# F3Na1Ni1   [ORCC,ORCC,oS20] (STD_PRIM do
data_F3Na1Ni1
_pd_phase_name F3Na1Ni1
_cell_length_a  5.3260197819
_cell_length_b  5.3260197819
_cell_length_c  7.4667014416
_cell_angle_alpha  90.0000000000
_cell_angle_beta  90.0000000000
_cell_angle_gamma  146.5937560410
_symmetry_space_group_name_H-M  'P1'
_symmetry_Int_Tables_Number  1
loop_
_symmetry_equiv_pos_site_id
_symmetry_equiv_pos_as_xyz
  1  x,y,z
loop_
 _atom_site_label
 _atom_site_occupancy
 _atom_site_fract_x
 _atom_site_fract_y
 _atom_site_fract_z
 _atom_site_thermal_displace_type
 _atom_site_B_iso_or_equiv
 _atom_site_type_symbol
F1 1.0000000000 0.9242253365 0.0757746635 0.7500000000  Biso 1.0 F
F2 1.0000000000 0.0757746635 0.9242253365 0.2500000000  Biso 1.0 F
F3 1.0000000000 0.6269528831 0.3730471169 0.9423812209  Biso 1.0 F
F4 1.0000000000 0.3730471169 0.6269528831 0.4423812209  Biso 1.0 F
F5 1.0000000000 0.6269528831 0.3730471169 0.5576187791  Biso 1.0 F
F6 1.0000000000 0.3730471169 0.6269528831 0.0576187791  Biso 1.0 F
Na7 1.0000000000 0.2554704378 0.7445295622 0.7500000000  Biso 1.0 Na
Na8 1.0000000000 0.7445295622 0.2554704378 0.2500000000  Biso 1.0 Na
Ni9 1.0000000000 0.0000000000 0.0000000000 0.0000000000  Biso 1.0 Ni
Ni10 1.0000000000 0.0000000000 0.0000000000 0.5000000000  Biso 1.0 Ni
