# AFLOW.org Repositories
# F6Hf1K2   [FCC,FCC,cF36] (STD_PRIM doi:1
data_F6Hf1K2
_pd_phase_name F6Hf1K2
_cell_length_a  6.1854164209
_cell_length_b  6.1854164209
_cell_length_c  6.1854164209
_cell_angle_alpha  60.0000000000
_cell_angle_beta  60.0000000000
_cell_angle_gamma  60.0000000000
_symmetry_space_group_name_H-M  'P1'
_symmetry_Int_Tables_Number  1
loop_
_symmetry_equiv_pos_site_id
_symmetry_equiv_pos_as_xyz
  1  x,y,z
loop_
 _atom_site_label
 _atom_site_occupancy
 _atom_site_fract_x
 _atom_site_fract_y
 _atom_site_fract_z
 _atom_site_thermal_displace_type
 _atom_site_B_iso_or_equiv
 _atom_site_type_symbol
F1 1.0000000000 0.7710412759 0.2289587241 0.7710412759  Biso 1.0 F
F2 1.0000000000 0.2289587241 0.7710412759 0.2289587241  Biso 1.0 F
F3 1.0000000000 0.2289587241 0.7710412759 0.7710412759  Biso 1.0 F
F4 1.0000000000 0.7710412759 0.2289587241 0.2289587241  Biso 1.0 F
F5 1.0000000000 0.7710412759 0.7710412759 0.2289587241  Biso 1.0 F
F6 1.0000000000 0.2289587241 0.2289587241 0.7710412759  Biso 1.0 F
Hf7 1.0000000000 0.0000000000 0.0000000000 0.0000000000  Biso 1.0 Hf
K8 1.0000000000 0.7500000000 0.7500000000 0.7500000000  Biso 1.0 K
K9 1.0000000000 0.2500000000 0.2500000000 0.2500000000  Biso 1.0 K
