# AFLOW.org Repositories
# F6K2Si1   [FCC,FCC,cF36] (STD_PRIM doi:1
data_F6K2Si1
_pd_phase_name F6K2Si1
_cell_length_a  5.8286720132
_cell_length_b  5.8286720132
_cell_length_c  5.8286720132
_cell_angle_alpha  60.0000000000
_cell_angle_beta  60.0000000000
_cell_angle_gamma  60.0000000000
_symmetry_space_group_name_H-M  'P1'
_symmetry_Int_Tables_Number  1
loop_
_symmetry_equiv_pos_site_id
_symmetry_equiv_pos_as_xyz
  1  x,y,z
loop_
 _atom_site_label
 _atom_site_occupancy
 _atom_site_fract_x
 _atom_site_fract_y
 _atom_site_fract_z
 _atom_site_thermal_displace_type
 _atom_site_B_iso_or_equiv
 _atom_site_type_symbol
F1 1.0000000000 0.2088959104 0.7911040896 0.7911040896  Biso 1.0 F
F2 1.0000000000 0.7911040896 0.2088959104 0.2088959104  Biso 1.0 F
F3 1.0000000000 0.7911040896 0.2088959104 0.7911040896  Biso 1.0 F
F4 1.0000000000 0.2088959104 0.7911040896 0.2088959104  Biso 1.0 F
F5 1.0000000000 0.2088959104 0.2088959104 0.7911040896  Biso 1.0 F
F6 1.0000000000 0.7911040896 0.7911040896 0.2088959104  Biso 1.0 F
K7 1.0000000000 0.2500000000 0.2500000000 0.2500000000  Biso 1.0 K
K8 1.0000000000 0.7500000000 0.7500000000 0.7500000000  Biso 1.0 K
Si9 1.0000000000 0.0000000000 0.0000000000 0.0000000000  Biso 1.0 Si
