# AFLOW.org Repositories
# Fe1Ga12Ho4   [BCC,BCC,cI34] (STD_PRIM do
data_Fe1Ga12Ho4
_pd_phase_name Fe1Ga12Ho4
_cell_length_a  7.4475107489
_cell_length_b  7.4475107489
_cell_length_c  7.4475107489
_cell_angle_alpha  109.4712206345
_cell_angle_beta  109.4712206345
_cell_angle_gamma  109.4712206345
_symmetry_space_group_name_H-M  'P1'
_symmetry_Int_Tables_Number  1
loop_
_symmetry_equiv_pos_site_id
_symmetry_equiv_pos_as_xyz
  1  x,y,z
loop_
 _atom_site_label
 _atom_site_occupancy
 _atom_site_fract_x
 _atom_site_fract_y
 _atom_site_fract_z
 _atom_site_thermal_displace_type
 _atom_site_B_iso_or_equiv
 _atom_site_type_symbol
Fe1 1.0000000000 0.0000000000 0.0000000000 0.0000000000  Biso 1.0 Fe
Ga2 1.0000000000 0.2500000000 0.7500000000 0.5000000000  Biso 1.0 Ga
Ga3 1.0000000000 0.7500000000 0.2500000000 0.5000000000  Biso 1.0 Ga
Ga4 1.0000000000 0.2500000000 0.5000000000 0.7500000000  Biso 1.0 Ga
Ga5 1.0000000000 0.7500000000 0.5000000000 0.2500000000  Biso 1.0 Ga
Ga6 1.0000000000 0.5000000000 0.2500000000 0.7500000000  Biso 1.0 Ga
Ga7 1.0000000000 0.5000000000 0.7500000000 0.2500000000  Biso 1.0 Ga
Ga8 1.0000000000 0.2931886600 0.2931886600 0.0000000000  Biso 1.0 Ga
Ga9 1.0000000000 0.7068113400 0.7068113400 0.0000000000  Biso 1.0 Ga
Ga10 1.0000000000 0.7068113400 0.0000000000 0.7068113400  Biso 1.0 Ga
Ga11 1.0000000000 0.2931886600 0.0000000000 0.2931886600  Biso 1.0 Ga
Ga12 1.0000000000 0.0000000000 0.2931886600 0.2931886600  Biso 1.0 Ga
Ga13 1.0000000000 0.0000000000 0.7068113400 0.7068113400  Biso 1.0 Ga
Ho14 1.0000000000 0.0000000000 0.5000000000 0.0000000000  Biso 1.0 Ho
Ho15 1.0000000000 0.0000000000 0.0000000000 0.5000000000  Biso 1.0 Ho
Ho16 1.0000000000 0.5000000000 0.5000000000 0.5000000000  Biso 1.0 Ho
Ho17 1.0000000000 0.5000000000 0.0000000000 0.0000000000  Biso 1.0 Ho
