# AFLOW.org Repositories
# Fe2W1   [HEX,HEX,hP12] (STD_PRIM doi:10.
data_Fe2W1
_pd_phase_name Fe2W1
_cell_length_a  4.9316951109
_cell_length_b  4.9316951109
_cell_length_c  7.9715268900
_cell_angle_alpha  90.0000000000
_cell_angle_beta  90.0000000000
_cell_angle_gamma  120.0000000000
_symmetry_space_group_name_H-M  'P1'
_symmetry_Int_Tables_Number  1
loop_
_symmetry_equiv_pos_site_id
_symmetry_equiv_pos_as_xyz
  1  x,y,z
loop_
 _atom_site_label
 _atom_site_occupancy
 _atom_site_fract_x
 _atom_site_fract_y
 _atom_site_fract_z
 _atom_site_thermal_displace_type
 _atom_site_B_iso_or_equiv
 _atom_site_type_symbol
Fe1 1.0000000000 0.0000000000 0.0000000000 0.0000000000  Biso 1.0 Fe
Fe2 1.0000000000 0.0000000000 0.0000000000 0.5000000000  Biso 1.0 Fe
Fe3 1.0000000000 0.8307924395 0.6615848789 0.2500000000  Biso 1.0 Fe
Fe4 1.0000000000 0.3384138340 0.1691992737 0.2500000000  Biso 1.0 Fe
Fe5 1.0000000000 0.8307854397 0.1691992737 0.2500000000  Biso 1.0 Fe
Fe6 1.0000000000 0.1692075605 0.3384151211 0.7500000000  Biso 1.0 Fe
Fe7 1.0000000000 0.6615861660 0.8308007263 0.7500000000  Biso 1.0 Fe
Fe8 1.0000000000 0.1692145603 0.8308007263 0.7500000000  Biso 1.0 Fe
W9 1.0000000000 0.6666740285 0.3333480569 0.9373260730  Biso 1.0 W
W10 1.0000000000 0.3333259715 0.6666519431 0.4373260730  Biso 1.0 W
W11 1.0000000000 0.3333259715 0.6666519431 0.0626739270  Biso 1.0 W
W12 1.0000000000 0.6666740285 0.3333480569 0.5626739270  Biso 1.0 W
