# AFLOW.org Repositories
# Fe4O11Sr4   [ORCC,ORCC,oS38] (STD_PRIM d
data_Fe4O11Sr4
_pd_phase_name Fe4O11Sr4
_cell_length_a  6.7983956703
_cell_length_b  6.7983956703
_cell_length_c  5.5405588409
_cell_angle_alpha  90.0000000000
_cell_angle_beta  90.0000000000
_cell_angle_gamma  109.8879657328
_symmetry_space_group_name_H-M  'P1'
_symmetry_Int_Tables_Number  1
loop_
_symmetry_equiv_pos_site_id
_symmetry_equiv_pos_as_xyz
  1  x,y,z
loop_
 _atom_site_label
 _atom_site_occupancy
 _atom_site_fract_x
 _atom_site_fract_y
 _atom_site_fract_z
 _atom_site_thermal_displace_type
 _atom_site_B_iso_or_equiv
 _atom_site_type_symbol
Fe1 1.0000000000 0.7464686112 0.7464686112 0.0000000000  Biso 1.0 Fe
Fe2 1.0000000000 0.2535313888 0.2535313888 0.0000000000  Biso 1.0 Fe
Fe3 1.0000000000 0.0000000000 0.5000000000 0.5000000000  Biso 1.0 Fe
Fe4 1.0000000000 0.5000000000 0.0000000000 0.5000000000  Biso 1.0 Fe
O5 1.0000000000 0.5000000000 0.5000000000 0.0000000000  Biso 1.0 O
O6 1.0000000000 0.7255234445 0.2744765555 0.5000000000  Biso 1.0 O
O7 1.0000000000 0.2744765555 0.7255234445 0.5000000000  Biso 1.0 O
O8 1.0000000000 0.9011392800 0.6589676221 0.7603873884  Biso 1.0 O
O9 1.0000000000 0.0988607200 0.3410323779 0.7603873884  Biso 1.0 O
O10 1.0000000000 0.6589676221 0.9011392800 0.2396126116  Biso 1.0 O
O11 1.0000000000 0.3410323779 0.0988607200 0.2396126116  Biso 1.0 O
O12 1.0000000000 0.0988607200 0.3410323779 0.2396126116  Biso 1.0 O
O13 1.0000000000 0.9011392800 0.6589676221 0.2396126116  Biso 1.0 O
O14 1.0000000000 0.3410323779 0.0988607200 0.7603873884  Biso 1.0 O
O15 1.0000000000 0.6589676221 0.9011392800 0.7603873884  Biso 1.0 O
Sr16 1.0000000000 0.5000000000 0.5000000000 0.5000000000  Biso 1.0 Sr
Sr17 1.0000000000 0.0000000000 0.0000000000 0.5000000000  Biso 1.0 Sr
Sr18 1.0000000000 0.7407614186 0.2592385814 0.0000000000  Biso 1.0 Sr
Sr19 1.0000000000 0.2592385814 0.7407614186 0.0000000000  Biso 1.0 Sr
