# AFLOW.org Repositories
# Ga0.4N0.2V0.6   [CUB,CUB,cP24] (STD_PRIM
data_Ga0.4N0.2V0.6
_pd_phase_name Ga0.4N0.2V0.6
_cell_length_a  6.6445250880
_cell_length_b  6.6445250880
_cell_length_c  6.6445250880
_cell_angle_alpha  90.0000000000
_cell_angle_beta  90.0000000000
_cell_angle_gamma  90.0000000000
_symmetry_space_group_name_H-M  'P1'
_symmetry_Int_Tables_Number  1
loop_
_symmetry_equiv_pos_site_id
_symmetry_equiv_pos_as_xyz
  1  x,y,z
loop_
 _atom_site_label
 _atom_site_occupancy
 _atom_site_fract_x
 _atom_site_fract_y
 _atom_site_fract_z
 _atom_site_thermal_displace_type
 _atom_site_B_iso_or_equiv
 _atom_site_type_symbol
Ga1 1.0000000000 0.9312369396 0.9312369396 0.0687630604  Biso 1.0 Ga
Ga2 1.0000000000 0.5687630604 0.0687630604 0.5687630604  Biso 1.0 Ga
Ga3 1.0000000000 0.0687630604 0.4312369396 0.4312369396  Biso 1.0 Ga
Ga4 1.0000000000 0.4312369396 0.5687630604 0.9312369396  Biso 1.0 Ga
Ga5 1.0000000000 0.1812369396 0.6812369396 0.1812369396  Biso 1.0 Ga
Ga6 1.0000000000 0.3187630604 0.3187630604 0.6812369396  Biso 1.0 Ga
Ga7 1.0000000000 0.6812369396 0.8187630604 0.8187630604  Biso 1.0 Ga
Ga8 1.0000000000 0.8187630604 0.1812369396 0.3187630604  Biso 1.0 Ga
N9 1.0000000000 0.6250000000 0.6250000000 0.3750000000  Biso 1.0 N
N10 1.0000000000 0.8750000000 0.3750000000 0.8750000000  Biso 1.0 N
N11 1.0000000000 0.3750000000 0.1250000000 0.1250000000  Biso 1.0 N
N12 1.0000000000 0.1250000000 0.8750000000 0.6250000000  Biso 1.0 N
V13 1.0000000000 0.8750000000 0.7931575469 0.4568424531  Biso 1.0 V
V14 1.0000000000 0.6250000000 0.2068424531 0.9568424531  Biso 1.0 V
V15 1.0000000000 0.1250000000 0.2931575469 0.0431575469  Biso 1.0 V
V16 1.0000000000 0.3750000000 0.7068424531 0.5431575469  Biso 1.0 V
V17 1.0000000000 0.5431575469 0.8750000000 0.2068424531  Biso 1.0 V
V18 1.0000000000 0.0431575469 0.6250000000 0.7931575469  Biso 1.0 V
V19 1.0000000000 0.9568424531 0.1250000000 0.7068424531  Biso 1.0 V
V20 1.0000000000 0.4568424531 0.3750000000 0.2931575469  Biso 1.0 V
V21 1.0000000000 0.7931575469 0.5431575469 0.1250000000  Biso 1.0 V
V22 1.0000000000 0.2068424531 0.0431575469 0.3750000000  Biso 1.0 V
V23 1.0000000000 0.2931575469 0.9568424531 0.8750000000  Biso 1.0 V
V24 1.0000000000 0.7068424531 0.4568424531 0.6250000000  Biso 1.0 V
