# AFLOW.org Repositories
# Ga1N1   [HEX,HEX,hP4] (STD_PRIM doi:10.1
data_Ga1N1
_pd_phase_name Ga1N1
_cell_length_a  3.2060739466
_cell_length_b  3.2060739466
_cell_length_c  5.2163633029
_cell_angle_alpha  90.0000000000
_cell_angle_beta  90.0000000000
_cell_angle_gamma  120.0000000000
_symmetry_space_group_name_H-M  'P1'
_symmetry_Int_Tables_Number  1
loop_
_symmetry_equiv_pos_site_id
_symmetry_equiv_pos_as_xyz
  1  x,y,z
loop_
 _atom_site_label
 _atom_site_occupancy
 _atom_site_fract_x
 _atom_site_fract_y
 _atom_site_fract_z
 _atom_site_thermal_displace_type
 _atom_site_B_iso_or_equiv
 _atom_site_type_symbol
Ga1 1.0000000000 0.3333379961 0.6666689981 0.9797985450  Biso 1.0 Ga
Ga2 1.0000000000 0.6666620039 0.3333310019 0.4797985450  Biso 1.0 Ga
N3 1.0000000000 0.3333377326 0.6666688663 0.3572014550  Biso 1.0 N
N4 1.0000000000 0.6666622674 0.3333311337 0.8572014550  Biso 1.0 N
