# AFLOW.org Repositories
# Ga1Pt1Zr1                               
data_Ga1Pt1Zr1
_pd_phase_name Ga1Pt1Zr1
_cell_length_a  7.1876095121
_cell_length_b  7.1876095121
_cell_length_c  7.1235608072
_cell_angle_alpha  90.0000000000
_cell_angle_beta  90.0000000000
_cell_angle_gamma  120.0000000000
_symmetry_space_group_name_H-M  'P1'
_symmetry_Int_Tables_Number  1
loop_
_symmetry_equiv_pos_site_id
_symmetry_equiv_pos_as_xyz
  1  x,y,z
loop_
 _atom_site_label
 _atom_site_occupancy
 _atom_site_fract_x
 _atom_site_fract_y
 _atom_site_fract_z
 _atom_site_thermal_displace_type
 _atom_site_B_iso_or_equiv
 _atom_site_type_symbol
Ga1 1.0000000000 0.2659781467 0.0000000000 0.0000000000  Biso 1.0 Ga
Ga2 1.0000000000 0.0000000000 0.2659781467 0.0000000000  Biso 1.0 Ga
Ga3 1.0000000000 0.7340441030 0.7340441030 0.0000000000  Biso 1.0 Ga
Ga4 1.0000000000 0.2659781467 0.0000000000 0.4999709069  Biso 1.0 Ga
Ga5 1.0000000000 0.0000000000 0.2659781467 0.5000290931  Biso 1.0 Ga
Ga6 1.0000000000 0.7340441030 0.7340441030 0.5000000000  Biso 1.0 Ga
Pt7 1.0000000000 0.6666656117 0.3333279722 0.9716065465  Biso 1.0 Pt
Pt8 1.0000000000 0.6666656117 0.3333279722 0.5283934535  Biso 1.0 Pt
Pt9 1.0000000000 0.3333279722 0.6666656117 0.0283934535  Biso 1.0 Pt
Pt10 1.0000000000 0.3333279722 0.6666656117 0.4716065465  Biso 1.0 Pt
Pt11 1.0000000000 0.0000000000 0.0000000000 0.7500000000  Biso 1.0 Pt
Pt12 1.0000000000 0.0000000000 0.0000000000 0.2500000000  Biso 1.0 Pt
Zr13 1.0000000000 0.5915791271 0.9796877200 0.7500000000  Biso 1.0 Zr
Zr14 1.0000000000 0.0202359350 0.6119182931 0.7500000000  Biso 1.0 Zr
Zr15 1.0000000000 0.3880664229 0.4084136261 0.7500000000  Biso 1.0 Zr
Zr16 1.0000000000 0.9796877200 0.5915791271 0.2500000000  Biso 1.0 Zr
Zr17 1.0000000000 0.6119182931 0.0202359350 0.2500000000  Biso 1.0 Zr
Zr18 1.0000000000 0.4084136261 0.3880664229 0.2500000000  Biso 1.0 Zr
