# AFLOW.org Repositories
# Ga1Se2Tl1   [BCT,BCT1,tI16] (STD_PRIM do
data_Ga1Se2Tl1
_pd_phase_name Ga1Se2Tl1
_cell_length_a  6.6514186946
_cell_length_b  6.6514186946
_cell_length_c  6.6514186946
_cell_angle_alpha  103.8614686296
_cell_angle_beta  103.8614686296
_cell_angle_gamma  121.3892606625
_symmetry_space_group_name_H-M  'P1'
_symmetry_Int_Tables_Number  1
loop_
_symmetry_equiv_pos_site_id
_symmetry_equiv_pos_as_xyz
  1  x,y,z
loop_
 _atom_site_label
 _atom_site_occupancy
 _atom_site_fract_x
 _atom_site_fract_y
 _atom_site_fract_z
 _atom_site_thermal_displace_type
 _atom_site_B_iso_or_equiv
 _atom_site_type_symbol
Ga1 1.0000000000 0.2500000000 0.7500000000 0.5000000000  Biso 1.0 Ga
Ga2 1.0000000000 0.7500000000 0.2500000000 0.5000000000  Biso 1.0 Ga
Se3 1.0000000000 0.6596612052 0.8403387948 0.5000000000  Biso 1.0 Se
Se4 1.0000000000 0.3403387948 0.1596612052 0.5000000000  Biso 1.0 Se
Se5 1.0000000000 0.1596612052 0.6596612052 0.8193224104  Biso 1.0 Se
Se6 1.0000000000 0.8403387948 0.3403387948 0.1806775896  Biso 1.0 Se
Tl7 1.0000000000 0.7500000000 0.7500000000 0.0000000000  Biso 1.0 Tl
Tl8 1.0000000000 0.2500000000 0.2500000000 0.0000000000  Biso 1.0 Tl
