# AFLOW.org Repositories
# Ga1S8Ti4   [FCC,FCC,cF52] (STD_PRIM doi:
data_Ga1S8Ti4
_pd_phase_name Ga1S8Ti4
_cell_length_a  7.2499292450
_cell_length_b  7.2499292450
_cell_length_c  7.2499292450
_cell_angle_alpha  60.0000000000
_cell_angle_beta  60.0000000000
_cell_angle_gamma  60.0000000000
_symmetry_space_group_name_H-M  'P1'
_symmetry_Int_Tables_Number  1
loop_
_symmetry_equiv_pos_site_id
_symmetry_equiv_pos_as_xyz
  1  x,y,z
loop_
 _atom_site_label
 _atom_site_occupancy
 _atom_site_fract_x
 _atom_site_fract_y
 _atom_site_fract_z
 _atom_site_thermal_displace_type
 _atom_site_B_iso_or_equiv
 _atom_site_type_symbol
Ga1 1.0000000000 0.0000000000 0.0000000000 0.0000000000  Biso 1.0 Ga
S2 1.0000000000 0.1301575928 0.6232808024 0.6232808024  Biso 1.0 S
S3 1.0000000000 0.6232808024 0.6232808024 0.1301575928  Biso 1.0 S
S4 1.0000000000 0.6232808024 0.1301575928 0.6232808024  Biso 1.0 S
S5 1.0000000000 0.6232808024 0.6232808024 0.6232808024  Biso 1.0 S
S6 1.0000000000 0.6033113760 0.1322295413 0.1322295413  Biso 1.0 S
S7 1.0000000000 0.1322295413 0.1322295413 0.6033113760  Biso 1.0 S
S8 1.0000000000 0.1322295413 0.6033113760 0.1322295413  Biso 1.0 S
S9 1.0000000000 0.1322295413 0.1322295413 0.1322295413  Biso 1.0 S
Ti10 1.0000000000 0.8436994235 0.3854335255 0.3854335255  Biso 1.0 Ti
Ti11 1.0000000000 0.3854335255 0.3854335255 0.8436994235  Biso 1.0 Ti
Ti12 1.0000000000 0.3854335255 0.8436994235 0.3854335255  Biso 1.0 Ti
Ti13 1.0000000000 0.3854335255 0.3854335255 0.3854335255  Biso 1.0 Ti
