# AFLOW.org Repositories
# Ga1Sc1   [ORCC,ORCC,oS8] (STD_PRIM doi:1
data_Ga1Sc1
_pd_phase_name Ga1Sc1
_cell_length_a  5.5570681689
_cell_length_b  5.5570681689
_cell_length_c  3.9267094015
_cell_angle_alpha  90.0000000000
_cell_angle_beta  90.0000000000
_cell_angle_gamma  136.5826841069
_symmetry_space_group_name_H-M  'P1'
_symmetry_Int_Tables_Number  1
loop_
_symmetry_equiv_pos_site_id
_symmetry_equiv_pos_as_xyz
  1  x,y,z
loop_
 _atom_site_label
 _atom_site_occupancy
 _atom_site_fract_x
 _atom_site_fract_y
 _atom_site_fract_z
 _atom_site_thermal_displace_type
 _atom_site_B_iso_or_equiv
 _atom_site_type_symbol
Ga1 1.0000000000 0.5810677071 0.4189322929 0.7500000000  Biso 1.0 Ga
Ga2 1.0000000000 0.4189322929 0.5810677071 0.2500000000  Biso 1.0 Ga
Sc3 1.0000000000 0.8614660328 0.1385339672 0.7500000000  Biso 1.0 Sc
Sc4 1.0000000000 0.1385339672 0.8614660328 0.2500000000  Biso 1.0 Sc
