# AFLOW.org Repositories
# Ga2Ru1   [ORCF,ORCF1,oF24] (STD_PRIM doi
data_Ga2Ru1
_pd_phase_name Ga2Ru1
_cell_length_a  5.9936941270
_cell_length_b  4.9712568027
_cell_length_c  4.7478620408
_cell_angle_alpha  76.1111403836
_cell_angle_beta  53.6261979911
_cell_angle_gamma  50.2626616253
_symmetry_space_group_name_H-M  'P1'
_symmetry_Int_Tables_Number  1
loop_
_symmetry_equiv_pos_site_id
_symmetry_equiv_pos_as_xyz
  1  x,y,z
loop_
 _atom_site_label
 _atom_site_occupancy
 _atom_site_fract_x
 _atom_site_fract_y
 _atom_site_fract_z
 _atom_site_thermal_displace_type
 _atom_site_B_iso_or_equiv
 _atom_site_type_symbol
Ga1 1.0000000000 0.3301550595 0.6698449405 0.3301550595  Biso 1.0 Ga
Ga2 1.0000000000 0.6698449405 0.3301550595 0.6698449405  Biso 1.0 Ga
Ga3 1.0000000000 0.4198449405 0.0801550595 0.4198449405  Biso 1.0 Ga
Ga4 1.0000000000 0.0801550595 0.4198449405 0.0801550595  Biso 1.0 Ga
Ru5 1.0000000000 0.0000000000 0.0000000000 0.0000000000  Biso 1.0 Ru
Ru6 1.0000000000 0.7500000000 0.7500000000 0.7500000000  Biso 1.0 Ru
