# AFLOW.org Repositories
# Ga2Sc1   [ORCI,ORCI,oI12] (STD_PRIM doi:
data_Ga2Sc1
_pd_phase_name Ga2Sc1
_cell_length_a  5.6112431902
_cell_length_b  5.6112431902
_cell_length_c  5.6112431902
_cell_angle_alpha  136.3332607126
_cell_angle_beta  107.1319293004
_cell_angle_gamma  88.9720010845
_symmetry_space_group_name_H-M  'P1'
_symmetry_Int_Tables_Number  1
loop_
_symmetry_equiv_pos_site_id
_symmetry_equiv_pos_as_xyz
  1  x,y,z
loop_
 _atom_site_label
 _atom_site_occupancy
 _atom_site_fract_x
 _atom_site_fract_y
 _atom_site_fract_z
 _atom_site_thermal_displace_type
 _atom_site_B_iso_or_equiv
 _atom_site_type_symbol
Ga1 1.0000000000 0.1145637794 0.1591733818 0.9553903976  Biso 1.0 Ga
Ga2 1.0000000000 0.7037829843 0.1591733818 0.5446096024  Biso 1.0 Ga
Ga3 1.0000000000 0.2962170157 0.8408266182 0.4553903976  Biso 1.0 Ga
Ga4 1.0000000000 0.8854362206 0.8408266182 0.0446096024  Biso 1.0 Ga
Sc5 1.0000000000 0.3069645943 0.5569645943 0.7500000000  Biso 1.0 Sc
Sc6 1.0000000000 0.6930354057 0.4430354057 0.2500000000  Biso 1.0 Sc
