# AFLOW.org Repositories
# Ge1Ho1   [ORCC,ORCC,oS8] (STD_PRIM doi:1
data_Ge1Ho1
_pd_phase_name Ge1Ho1
_cell_length_a  5.7418059731
_cell_length_b  5.7418059731
_cell_length_c  3.9367425557
_cell_angle_alpha  90.0000000000
_cell_angle_beta  90.0000000000
_cell_angle_gamma  136.4648249567
_symmetry_space_group_name_H-M  'P1'
_symmetry_Int_Tables_Number  1
loop_
_symmetry_equiv_pos_site_id
_symmetry_equiv_pos_as_xyz
  1  x,y,z
loop_
 _atom_site_label
 _atom_site_occupancy
 _atom_site_fract_x
 _atom_site_fract_y
 _atom_site_fract_z
 _atom_site_thermal_displace_type
 _atom_site_B_iso_or_equiv
 _atom_site_type_symbol
Ge1 1.0000000000 0.5857256338 0.4142743662 0.7500000000  Biso 1.0 Ge
Ge2 1.0000000000 0.4142743662 0.5857256338 0.2500000000  Biso 1.0 Ge
Ho3 1.0000000000 0.8615740656 0.1384259344 0.7500000000  Biso 1.0 Ho
Ho4 1.0000000000 0.1384259344 0.8615740656 0.2500000000  Biso 1.0 Ho
