# AFLOW.org Repositories
# Ge1O6Se2   [CUB,CUB,cP36] (STD_PRIM doi:
data_Ge1O6Se2
_pd_phase_name Ge1O6Se2
_cell_length_a  7.9296693873
_cell_length_b  7.9296693873
_cell_length_c  7.9296693873
_cell_angle_alpha  90.0000000000
_cell_angle_beta  90.0000000000
_cell_angle_gamma  90.0000000000
_symmetry_space_group_name_H-M  'P1'
_symmetry_Int_Tables_Number  1
loop_
_symmetry_equiv_pos_site_id
_symmetry_equiv_pos_as_xyz
  1  x,y,z
loop_
 _atom_site_label
 _atom_site_occupancy
 _atom_site_fract_x
 _atom_site_fract_y
 _atom_site_fract_z
 _atom_site_thermal_displace_type
 _atom_site_B_iso_or_equiv
 _atom_site_type_symbol
Ge1 1.0000000000 0.0000000000 0.5000000000 0.0000000000  Biso 1.0 Ge
Ge2 1.0000000000 0.5000000000 0.5000000000 0.5000000000  Biso 1.0 Ge
Ge3 1.0000000000 0.0000000000 0.0000000000 0.5000000000  Biso 1.0 Ge
Ge4 1.0000000000 0.5000000000 0.0000000000 0.0000000000  Biso 1.0 Ge
O5 1.0000000000 0.9711387206 0.5277638496 0.7609190474  Biso 1.0 O
O6 1.0000000000 0.5288612794 0.4722361504 0.2609190474  Biso 1.0 O
O7 1.0000000000 0.0288612794 0.0277638496 0.7390809526  Biso 1.0 O
O8 1.0000000000 0.4711387206 0.9722361504 0.2390809526  Biso 1.0 O
O9 1.0000000000 0.2390809526 0.9711387206 0.4722361504  Biso 1.0 O
O10 1.0000000000 0.7390809526 0.5288612794 0.5277638496  Biso 1.0 O
O11 1.0000000000 0.2609190474 0.0288612794 0.9722361504  Biso 1.0 O
O12 1.0000000000 0.7609190474 0.4711387206 0.0277638496  Biso 1.0 O
O13 1.0000000000 0.5277638496 0.2390809526 0.0288612794  Biso 1.0 O
O14 1.0000000000 0.4722361504 0.7390809526 0.4711387206  Biso 1.0 O
O15 1.0000000000 0.0277638496 0.2609190474 0.9711387206  Biso 1.0 O
O16 1.0000000000 0.9722361504 0.7609190474 0.5288612794  Biso 1.0 O
O17 1.0000000000 0.0288612794 0.4722361504 0.2390809526  Biso 1.0 O
O18 1.0000000000 0.4711387206 0.5277638496 0.7390809526  Biso 1.0 O
O19 1.0000000000 0.9711387206 0.9722361504 0.2609190474  Biso 1.0 O
O20 1.0000000000 0.5288612794 0.0277638496 0.7609190474  Biso 1.0 O
O21 1.0000000000 0.7609190474 0.0288612794 0.5277638496  Biso 1.0 O
O22 1.0000000000 0.2609190474 0.4711387206 0.4722361504  Biso 1.0 O
O23 1.0000000000 0.7390809526 0.9711387206 0.0277638496  Biso 1.0 O
O24 1.0000000000 0.2390809526 0.5288612794 0.9722361504  Biso 1.0 O
O25 1.0000000000 0.4722361504 0.7609190474 0.9711387206  Biso 1.0 O
O26 1.0000000000 0.5277638496 0.2609190474 0.5288612794  Biso 1.0 O
O27 1.0000000000 0.9722361504 0.7390809526 0.0288612794  Biso 1.0 O
O28 1.0000000000 0.0277638496 0.2390809526 0.4711387206  Biso 1.0 O
Se29 1.0000000000 0.8300089557 0.6699910443 0.6699910443  Biso 1.0 Se
Se30 1.0000000000 0.6699910443 0.3300089557 0.1699910443  Biso 1.0 Se
Se31 1.0000000000 0.1699910443 0.1699910443 0.8300089557  Biso 1.0 Se
Se32 1.0000000000 0.3300089557 0.8300089557 0.3300089557  Biso 1.0 Se
Se33 1.0000000000 0.1699910443 0.3300089557 0.3300089557  Biso 1.0 Se
Se34 1.0000000000 0.3300089557 0.6699910443 0.8300089557  Biso 1.0 Se
Se35 1.0000000000 0.8300089557 0.8300089557 0.1699910443  Biso 1.0 Se
Se36 1.0000000000 0.6699910443 0.1699910443 0.6699910443  Biso 1.0 Se
