# AFLOW.org Repositories
# Ge1Pd2   [HEX,HEX,hP9] (STD_PRIM doi:10.
data_Ge1Pd2
_pd_phase_name Ge1Pd2
_cell_length_a  6.7699296577
_cell_length_b  6.7699296577
_cell_length_c  3.4709398910
_cell_angle_alpha  90.0000000000
_cell_angle_beta  90.0000000000
_cell_angle_gamma  120.0000000000
_symmetry_space_group_name_H-M  'P1'
_symmetry_Int_Tables_Number  1
loop_
_symmetry_equiv_pos_site_id
_symmetry_equiv_pos_as_xyz
  1  x,y,z
loop_
 _atom_site_label
 _atom_site_occupancy
 _atom_site_fract_x
 _atom_site_fract_y
 _atom_site_fract_z
 _atom_site_thermal_displace_type
 _atom_site_B_iso_or_equiv
 _atom_site_type_symbol
Ge1 1.0000000000 0.6666430548 0.3332819028 0.0000000000  Biso 1.0 Ge
Ge2 1.0000000000 0.3333611520 0.6667180972 0.0000000000  Biso 1.0 Ge
Ge3 1.0000000000 0.0000000000 0.0000000000 0.5000000000  Biso 1.0 Ge
Pd4 1.0000000000 0.0000000000 0.7317840398 0.0000000000  Biso 1.0 Pd
Pd5 1.0000000000 0.2682159602 0.2682159602 0.0000000000  Biso 1.0 Pd
Pd6 1.0000000000 0.7317855312 0.0000000000 0.0000000000  Biso 1.0 Pd
Pd7 1.0000000000 0.0000000000 0.3934736276 0.5000000000  Biso 1.0 Pd
Pd8 1.0000000000 0.6065263724 0.6065263724 0.5000000000  Biso 1.0 Pd
Pd9 1.0000000000 0.3934788194 0.0000000000 0.5000000000  Biso 1.0 Pd
