# AFLOW.org Repositories
# Ge1P1   [BCT,BCT2,tI4] (STD_PRIM doi:10.
data_Ge1P1
_pd_phase_name Ge1P1
_cell_length_a  3.8134386683
_cell_length_b  3.8134386683
_cell_length_c  3.8134386683
_cell_angle_alpha  124.1345320492
_cell_angle_beta  124.1345320492
_cell_angle_gamma  82.9765289999
_symmetry_space_group_name_H-M  'P1'
_symmetry_Int_Tables_Number  1
loop_
_symmetry_equiv_pos_site_id
_symmetry_equiv_pos_as_xyz
  1  x,y,z
loop_
 _atom_site_label
 _atom_site_occupancy
 _atom_site_fract_x
 _atom_site_fract_y
 _atom_site_fract_z
 _atom_site_thermal_displace_type
 _atom_site_B_iso_or_equiv
 _atom_site_type_symbol
Ge1 1.0000000000 0.9973151409 0.9973151409 0.0000000000  Biso 1.0 Ge
P2 1.0000000000 0.5756848591 0.5756848591 0.0000000000  Biso 1.0 P
