# AFLOW.org Repositories
# Ge1Ru1   [CUB,CUB,cP8] (STD_PRIM doi:10.
data_Ge1Ru1
_pd_phase_name Ge1Ru1
_cell_length_a  4.8804628370
_cell_length_b  4.8804628370
_cell_length_c  4.8804628370
_cell_angle_alpha  90.0000000000
_cell_angle_beta  90.0000000000
_cell_angle_gamma  90.0000000000
_symmetry_space_group_name_H-M  'P1'
_symmetry_Int_Tables_Number  1
loop_
_symmetry_equiv_pos_site_id
_symmetry_equiv_pos_as_xyz
  1  x,y,z
loop_
 _atom_site_label
 _atom_site_occupancy
 _atom_site_fract_x
 _atom_site_fract_y
 _atom_site_fract_z
 _atom_site_thermal_displace_type
 _atom_site_B_iso_or_equiv
 _atom_site_type_symbol
Ge1 1.0000000000 0.1629587349 0.1629587349 0.8370412651  Biso 1.0 Ge
Ge2 1.0000000000 0.3370412651 0.8370412651 0.3370412651  Biso 1.0 Ge
Ge3 1.0000000000 0.8370412651 0.6629587349 0.6629587349  Biso 1.0 Ge
Ge4 1.0000000000 0.6629587349 0.3370412651 0.1629587349  Biso 1.0 Ge
Ru5 1.0000000000 0.8704714456 0.8704714456 0.1295285544  Biso 1.0 Ru
Ru6 1.0000000000 0.6295285544 0.1295285544 0.6295285544  Biso 1.0 Ru
Ru7 1.0000000000 0.1295285544 0.3704714456 0.3704714456  Biso 1.0 Ru
Ru8 1.0000000000 0.3704714456 0.6295285544 0.8704714456  Biso 1.0 Ru
