# AFLOW.org Repositories
# Ge1Ru1Tb1   [ORC,ORC,oP12] (STD_PRIM doi
data_Ge1Ru1Tb1
_pd_phase_name Ge1Ru1Tb1
_cell_length_a  4.3496211648
_cell_length_b  6.8998433453
_cell_length_c  7.5591506348
_cell_angle_alpha  90.0000000000
_cell_angle_beta  90.0000000000
_cell_angle_gamma  90.0000000000
_symmetry_space_group_name_H-M  'P1'
_symmetry_Int_Tables_Number  1
loop_
_symmetry_equiv_pos_site_id
_symmetry_equiv_pos_as_xyz
  1  x,y,z
loop_
 _atom_site_label
 _atom_site_occupancy
 _atom_site_fract_x
 _atom_site_fract_y
 _atom_site_fract_z
 _atom_site_thermal_displace_type
 _atom_site_B_iso_or_equiv
 _atom_site_type_symbol
Ge1 1.0000000000 0.2500000000 0.8223259845 0.4186683678  Biso 1.0 Ge
Ge2 1.0000000000 0.7500000000 0.6776740155 0.9186683678  Biso 1.0 Ge
Ge3 1.0000000000 0.7500000000 0.1776740155 0.5813316322  Biso 1.0 Ge
Ge4 1.0000000000 0.2500000000 0.3223259845 0.0813316322  Biso 1.0 Ge
Ru5 1.0000000000 0.2500000000 0.2095454763 0.4047422640  Biso 1.0 Ru
Ru6 1.0000000000 0.7500000000 0.2904545237 0.9047422640  Biso 1.0 Ru
Ru7 1.0000000000 0.7500000000 0.7904545237 0.5952577360  Biso 1.0 Ru
Ru8 1.0000000000 0.2500000000 0.7095454763 0.0952577360  Biso 1.0 Ru
Tb9 1.0000000000 0.2500000000 0.9847253366 0.8020687069  Biso 1.0 Tb
Tb10 1.0000000000 0.7500000000 0.5152746634 0.3020687069  Biso 1.0 Tb
Tb11 1.0000000000 0.7500000000 0.0152746634 0.1979312931  Biso 1.0 Tb
Tb12 1.0000000000 0.2500000000 0.4847253366 0.6979312931  Biso 1.0 Tb
