# AFLOW.org Repositories
# Ge1Rh1Y1   [ORC,ORC,oP12] (STD_PRIM doi:
data_Ge1Rh1Y1
_pd_phase_name Ge1Rh1Y1
_cell_length_a  4.3136062670
_cell_length_b  6.9391103153
_cell_length_c  7.5759295338
_cell_angle_alpha  90.0000000000
_cell_angle_beta  90.0000000000
_cell_angle_gamma  90.0000000000
_symmetry_space_group_name_H-M  'P1'
_symmetry_Int_Tables_Number  1
loop_
_symmetry_equiv_pos_site_id
_symmetry_equiv_pos_as_xyz
  1  x,y,z
loop_
 _atom_site_label
 _atom_site_occupancy
 _atom_site_fract_x
 _atom_site_fract_y
 _atom_site_fract_z
 _atom_site_thermal_displace_type
 _atom_site_B_iso_or_equiv
 _atom_site_type_symbol
Ge1 1.0000000000 0.2500000000 0.7891446337 0.3960005436  Biso 1.0 Ge
Ge2 1.0000000000 0.7500000000 0.7108553663 0.8960005436  Biso 1.0 Ge
Ge3 1.0000000000 0.7500000000 0.2108553663 0.6039994564  Biso 1.0 Ge
Ge4 1.0000000000 0.2500000000 0.2891446337 0.1039994564  Biso 1.0 Ge
Rh5 1.0000000000 0.2500000000 0.1554603783 0.4314744653  Biso 1.0 Rh
Rh6 1.0000000000 0.7500000000 0.3445396217 0.9314744653  Biso 1.0 Rh
Rh7 1.0000000000 0.7500000000 0.8445396217 0.5685255347  Biso 1.0 Rh
Rh8 1.0000000000 0.2500000000 0.6554603783 0.0685255347  Biso 1.0 Rh
Y9 1.0000000000 0.2500000000 0.5025781128 0.6959631909  Biso 1.0 Y
Y10 1.0000000000 0.7500000000 0.9974218872 0.1959631909  Biso 1.0 Y
Y11 1.0000000000 0.7500000000 0.4974218872 0.3040368091  Biso 1.0 Y
Y12 1.0000000000 0.2500000000 0.0025781128 0.8040368091  Biso 1.0 Y
