# AFLOW.org Repositories
# Ge2Ho2Mg1   [TET,TET,tP10] (STD_PRIM doi
data_Ge2Ho2Mg1
_pd_phase_name Ge2Ho2Mg1
_cell_length_a  7.2369311837
_cell_length_b  7.2369311837
_cell_length_c  4.2265514453
_cell_angle_alpha  90.0000000000
_cell_angle_beta  90.0000000000
_cell_angle_gamma  90.0000000000
_symmetry_space_group_name_H-M  'P1'
_symmetry_Int_Tables_Number  1
loop_
_symmetry_equiv_pos_site_id
_symmetry_equiv_pos_as_xyz
  1  x,y,z
loop_
 _atom_site_label
 _atom_site_occupancy
 _atom_site_fract_x
 _atom_site_fract_y
 _atom_site_fract_z
 _atom_site_thermal_displace_type
 _atom_site_B_iso_or_equiv
 _atom_site_type_symbol
Ge1 1.0000000000 0.3760214429 0.8760214429 0.0000000000  Biso 1.0 Ge
Ge2 1.0000000000 0.6239785571 0.1239785571 0.0000000000  Biso 1.0 Ge
Ge3 1.0000000000 0.1239785571 0.3760214429 0.0000000000  Biso 1.0 Ge
Ge4 1.0000000000 0.8760214429 0.6239785571 0.0000000000  Biso 1.0 Ge
Ho5 1.0000000000 0.1771841606 0.6771841606 0.5000000000  Biso 1.0 Ho
Ho6 1.0000000000 0.8228158394 0.3228158394 0.5000000000  Biso 1.0 Ho
Ho7 1.0000000000 0.3228158394 0.1771841606 0.5000000000  Biso 1.0 Ho
Ho8 1.0000000000 0.6771841606 0.8228158394 0.5000000000  Biso 1.0 Ho
Mg9 1.0000000000 0.0000000000 0.0000000000 0.0000000000  Biso 1.0 Mg
Mg10 1.0000000000 0.5000000000 0.5000000000 0.0000000000  Biso 1.0 Mg
