# AFLOW.org Repositories
# Ge2In1Tb2   [TET,TET,tP10] (STD_PRIM doi
data_Ge2In1Tb2
_pd_phase_name Ge2In1Tb2
_cell_length_a  7.4167631041
_cell_length_b  7.4167631041
_cell_length_c  4.2173344633
_cell_angle_alpha  90.0000000000
_cell_angle_beta  90.0000000000
_cell_angle_gamma  90.0000000000
_symmetry_space_group_name_H-M  'P1'
_symmetry_Int_Tables_Number  1
loop_
_symmetry_equiv_pos_site_id
_symmetry_equiv_pos_as_xyz
  1  x,y,z
loop_
 _atom_site_label
 _atom_site_occupancy
 _atom_site_fract_x
 _atom_site_fract_y
 _atom_site_fract_z
 _atom_site_thermal_displace_type
 _atom_site_B_iso_or_equiv
 _atom_site_type_symbol
Ge1 1.0000000000 0.3783309177 0.8783309177 0.0000000000  Biso 1.0 Ge
Ge2 1.0000000000 0.6216690823 0.1216690823 0.0000000000  Biso 1.0 Ge
Ge3 1.0000000000 0.1216690823 0.3783309177 0.0000000000  Biso 1.0 Ge
Ge4 1.0000000000 0.8783309177 0.6216690823 0.0000000000  Biso 1.0 Ge
In5 1.0000000000 0.0000000000 0.0000000000 0.0000000000  Biso 1.0 In
In6 1.0000000000 0.5000000000 0.5000000000 0.0000000000  Biso 1.0 In
Tb7 1.0000000000 0.1783091933 0.6783091933 0.5000000000  Biso 1.0 Tb
Tb8 1.0000000000 0.8216908067 0.3216908067 0.5000000000  Biso 1.0 Tb
Tb9 1.0000000000 0.3216908067 0.1783091933 0.5000000000  Biso 1.0 Tb
Tb10 1.0000000000 0.6783091933 0.8216908067 0.5000000000  Biso 1.0 Tb
