# AFLOW.org Repositories
# Ge2La1Pd1   [ORCC,ORCC,oS16] (STD_PRIM d
data_Ge2La1Pd1
_pd_phase_name Ge2La1Pd1
_cell_length_a  9.0033438031
_cell_length_b  9.0033438031
_cell_length_c  4.4631161240
_cell_angle_alpha  90.0000000000
_cell_angle_beta  90.0000000000
_cell_angle_gamma  151.4351466458
_symmetry_space_group_name_H-M  'P1'
_symmetry_Int_Tables_Number  1
loop_
_symmetry_equiv_pos_site_id
_symmetry_equiv_pos_as_xyz
  1  x,y,z
loop_
 _atom_site_label
 _atom_site_occupancy
 _atom_site_fract_x
 _atom_site_fract_y
 _atom_site_fract_z
 _atom_site_thermal_displace_type
 _atom_site_B_iso_or_equiv
 _atom_site_type_symbol
Ge1 1.0000000000 0.4633895127 0.5366104873 0.2500000000  Biso 1.0 Ge
Ge2 1.0000000000 0.5366104873 0.4633895127 0.7500000000  Biso 1.0 Ge
Ge3 1.0000000000 0.7496474242 0.2503525758 0.2500000000  Biso 1.0 Ge
Ge4 1.0000000000 0.2503525758 0.7496474242 0.7500000000  Biso 1.0 Ge
La5 1.0000000000 0.1068147139 0.8931852861 0.2500000000  Biso 1.0 La
La6 1.0000000000 0.8931852861 0.1068147139 0.7500000000  Biso 1.0 La
Pd7 1.0000000000 0.3208949142 0.6791050858 0.2500000000  Biso 1.0 Pd
Pd8 1.0000000000 0.6791050858 0.3208949142 0.7500000000  Biso 1.0 Pd
