# AFLOW.org Repositories
# Ge2Pt1   [ORC,ORC,oP6] (STD_PRIM doi:10.
data_Ge2Pt1
_pd_phase_name Ge2Pt1
_cell_length_a  3.0003255030
_cell_length_b  5.8279556728
_cell_length_c  6.2271957095
_cell_angle_alpha  90.0000000000
_cell_angle_beta  90.0000000000
_cell_angle_gamma  90.0000000000
_symmetry_space_group_name_H-M  'P1'
_symmetry_Int_Tables_Number  1
loop_
_symmetry_equiv_pos_site_id
_symmetry_equiv_pos_as_xyz
  1  x,y,z
loop_
 _atom_site_label
 _atom_site_occupancy
 _atom_site_fract_x
 _atom_site_fract_y
 _atom_site_fract_z
 _atom_site_thermal_displace_type
 _atom_site_B_iso_or_equiv
 _atom_site_type_symbol
Ge1 1.0000000000 0.0000000000 0.8292649895 0.6267880492  Biso 1.0 Ge
Ge2 1.0000000000 0.0000000000 0.1707350105 0.3732119508  Biso 1.0 Ge
Ge3 1.0000000000 0.5000000000 0.3292649895 0.8732119508  Biso 1.0 Ge
Ge4 1.0000000000 0.5000000000 0.6707350105 0.1267880492  Biso 1.0 Ge
Pt5 1.0000000000 0.0000000000 0.0000000000 0.0000000000  Biso 1.0 Pt
Pt6 1.0000000000 0.5000000000 0.5000000000 0.5000000000  Biso 1.0 Pt
