# AFLOW.org Repositories
# Ge2Pd2Tb1   [BCT,BCT2,tI10] (STD_PRIM do
data_Ge2Pd2Tb1
_pd_phase_name Ge2Pd2Tb1
_cell_length_a  5.8936494721
_cell_length_b  5.8936494721
_cell_length_c  5.8936494721
_cell_angle_alpha  137.4057463212
_cell_angle_beta  137.4057463212
_cell_angle_gamma  61.8143555766
_symmetry_space_group_name_H-M  'P1'
_symmetry_Int_Tables_Number  1
loop_
_symmetry_equiv_pos_site_id
_symmetry_equiv_pos_as_xyz
  1  x,y,z
loop_
 _atom_site_label
 _atom_site_occupancy
 _atom_site_fract_x
 _atom_site_fract_y
 _atom_site_fract_z
 _atom_site_thermal_displace_type
 _atom_site_B_iso_or_equiv
 _atom_site_type_symbol
Ge1 1.0000000000 0.6202288172 0.6202288172 0.0000000000  Biso 1.0 Ge
Ge2 1.0000000000 0.3797711828 0.3797711828 0.0000000000  Biso 1.0 Ge
Pd3 1.0000000000 0.7500000000 0.2500000000 0.5000000000  Biso 1.0 Pd
Pd4 1.0000000000 0.2500000000 0.7500000000 0.5000000000  Biso 1.0 Pd
Tb5 1.0000000000 0.0000000000 0.0000000000 0.0000000000  Biso 1.0 Tb
