# AFLOW.org Repositories
# Ge2Tb1   [BCT,BCT2,tI12] (STD_PRIM doi:1
data_Ge2Tb1
_pd_phase_name Ge2Tb1
_cell_length_a  8.7721959465
_cell_length_b  8.7721959465
_cell_length_c  8.7721959465
_cell_angle_alpha  153.6712993121
_cell_angle_beta  153.6712993121
_cell_angle_gamma  37.5775411175
_symmetry_space_group_name_H-M  'P1'
_symmetry_Int_Tables_Number  1
loop_
_symmetry_equiv_pos_site_id
_symmetry_equiv_pos_as_xyz
  1  x,y,z
loop_
 _atom_site_label
 _atom_site_occupancy
 _atom_site_fract_x
 _atom_site_fract_y
 _atom_site_fract_z
 _atom_site_thermal_displace_type
 _atom_site_B_iso_or_equiv
 _atom_site_type_symbol
Ge1 1.0000000000 0.5781383555 0.5781383555 0.0000000000  Biso 1.0 Ge
Ge2 1.0000000000 0.8281383555 0.3281383555 0.5000000000  Biso 1.0 Ge
Ge3 1.0000000000 0.6718616445 0.1718616445 0.5000000000  Biso 1.0 Ge
Ge4 1.0000000000 0.4218616445 0.4218616445 0.0000000000  Biso 1.0 Ge
Tb5 1.0000000000 0.0000000000 0.0000000000 0.0000000000  Biso 1.0 Tb
Tb6 1.0000000000 0.2500000000 0.7500000000 0.5000000000  Biso 1.0 Tb
