# AFLOW.org Repositories
# Ge3Ir1Sr1   [BCT,BCT2,tI10] (STD_PRIM do
data_Ge3Ir1Sr1
_pd_phase_name Ge3Ir1Sr1
_cell_length_a  5.9961028273
_cell_length_b  5.9961028273
_cell_length_c  5.9961028273
_cell_angle_alpha  135.9729588570
_cell_angle_beta  135.9729588570
_cell_angle_gamma  64.0221440167
_symmetry_space_group_name_H-M  'P1'
_symmetry_Int_Tables_Number  1
loop_
_symmetry_equiv_pos_site_id
_symmetry_equiv_pos_as_xyz
  1  x,y,z
loop_
 _atom_site_label
 _atom_site_occupancy
 _atom_site_fract_x
 _atom_site_fract_y
 _atom_site_fract_z
 _atom_site_thermal_displace_type
 _atom_site_B_iso_or_equiv
 _atom_site_type_symbol
Ge1 1.0000000000 0.2537025585 0.7537025585 0.5000000000  Biso 1.0 Ge
Ge2 1.0000000000 0.7537025585 0.2537025585 0.5000000000  Biso 1.0 Ge
Ge3 1.0000000000 0.4118927181 0.4118927181 0.0000000000  Biso 1.0 Ge
Ir4 1.0000000000 0.6495379588 0.6495379588 0.0000000000  Biso 1.0 Ir
Sr5 1.0000000000 0.0000000000 0.0000000000 0.0000000000  Biso 1.0 Sr
