# AFLOW.org Repositories
# Ge3Ir2S3   [CUB,CUB,cP32] (STD_PRIM doi:
data_Ge3Ir2S3
_pd_phase_name Ge3Ir2S3
_cell_length_a  8.4366362307
_cell_length_b  8.4366362307
_cell_length_c  8.4366362307
_cell_angle_alpha  90.0000000000
_cell_angle_beta  90.0000000000
_cell_angle_gamma  90.0000000000
_symmetry_space_group_name_H-M  'P1'
_symmetry_Int_Tables_Number  1
loop_
_symmetry_equiv_pos_site_id
_symmetry_equiv_pos_as_xyz
  1  x,y,z
loop_
 _atom_site_label
 _atom_site_occupancy
 _atom_site_fract_x
 _atom_site_fract_y
 _atom_site_fract_z
 _atom_site_thermal_displace_type
 _atom_site_B_iso_or_equiv
 _atom_site_type_symbol
Ge1 1.0000000000 0.0000000000 0.8564689271 0.3218289722  Biso 1.0 Ge
Ge2 1.0000000000 0.0000000000 0.1435310729 0.3218289722  Biso 1.0 Ge
Ge3 1.0000000000 0.0000000000 0.8564689271 0.6781710278  Biso 1.0 Ge
Ge4 1.0000000000 0.0000000000 0.1435310729 0.6781710278  Biso 1.0 Ge
Ge5 1.0000000000 0.6781710278 0.0000000000 0.1435310729  Biso 1.0 Ge
Ge6 1.0000000000 0.6781710278 0.0000000000 0.8564689271  Biso 1.0 Ge
Ge7 1.0000000000 0.3218289722 0.0000000000 0.1435310729  Biso 1.0 Ge
Ge8 1.0000000000 0.3218289722 0.0000000000 0.8564689271  Biso 1.0 Ge
Ge9 1.0000000000 0.8564689271 0.6781710278 0.0000000000  Biso 1.0 Ge
Ge10 1.0000000000 0.1435310729 0.6781710278 0.0000000000  Biso 1.0 Ge
Ge11 1.0000000000 0.8564689271 0.3218289722 0.0000000000  Biso 1.0 Ge
Ge12 1.0000000000 0.1435310729 0.3218289722 0.0000000000  Biso 1.0 Ge
Ir13 1.0000000000 0.7356838319 0.7356838319 0.2643161681  Biso 1.0 Ir
Ir14 1.0000000000 0.2643161681 0.2643161681 0.2643161681  Biso 1.0 Ir
Ir15 1.0000000000 0.2643161681 0.7356838319 0.7356838319  Biso 1.0 Ir
Ir16 1.0000000000 0.7356838319 0.2643161681 0.7356838319  Biso 1.0 Ir
Ir17 1.0000000000 0.2643161681 0.2643161681 0.7356838319  Biso 1.0 Ir
Ir18 1.0000000000 0.7356838319 0.7356838319 0.7356838319  Biso 1.0 Ir
Ir19 1.0000000000 0.7356838319 0.2643161681 0.2643161681  Biso 1.0 Ir
Ir20 1.0000000000 0.2643161681 0.7356838319 0.2643161681  Biso 1.0 Ir
S21 1.0000000000 0.5000000000 0.3737792780 0.8281294261  Biso 1.0 S
S22 1.0000000000 0.5000000000 0.6262207220 0.8281294261  Biso 1.0 S
S23 1.0000000000 0.5000000000 0.3737792780 0.1718705739  Biso 1.0 S
S24 1.0000000000 0.5000000000 0.6262207220 0.1718705739  Biso 1.0 S
S25 1.0000000000 0.1718705739 0.5000000000 0.6262207220  Biso 1.0 S
S26 1.0000000000 0.1718705739 0.5000000000 0.3737792780  Biso 1.0 S
S27 1.0000000000 0.8281294261 0.5000000000 0.6262207220  Biso 1.0 S
S28 1.0000000000 0.8281294261 0.5000000000 0.3737792780  Biso 1.0 S
S29 1.0000000000 0.3737792780 0.1718705739 0.5000000000  Biso 1.0 S
S30 1.0000000000 0.6262207220 0.1718705739 0.5000000000  Biso 1.0 S
S31 1.0000000000 0.3737792780 0.8281294261 0.5000000000  Biso 1.0 S
S32 1.0000000000 0.6262207220 0.8281294261 0.5000000000  Biso 1.0 S
