# AFLOW.org Repositories
# Ge3La4   [BCC,BCC,cI28] (STD_PRIM doi:10
data_Ge3La4
_pd_phase_name Ge3La4
_cell_length_a  8.1720771563
_cell_length_b  8.1720771563
_cell_length_c  8.1720771563
_cell_angle_alpha  109.4712206345
_cell_angle_beta  109.4712206345
_cell_angle_gamma  109.4712206345
_symmetry_space_group_name_H-M  'P1'
_symmetry_Int_Tables_Number  1
loop_
_symmetry_equiv_pos_site_id
_symmetry_equiv_pos_as_xyz
  1  x,y,z
loop_
 _atom_site_label
 _atom_site_occupancy
 _atom_site_fract_x
 _atom_site_fract_y
 _atom_site_fract_z
 _atom_site_thermal_displace_type
 _atom_site_B_iso_or_equiv
 _atom_site_type_symbol
Ge1 1.0000000000 0.8750000000 0.6250000000 0.2500000000  Biso 1.0 Ge
Ge2 1.0000000000 0.6250000000 0.8750000000 0.7500000000  Biso 1.0 Ge
Ge3 1.0000000000 0.7500000000 0.3750000000 0.6250000000  Biso 1.0 Ge
Ge4 1.0000000000 0.2500000000 0.1250000000 0.8750000000  Biso 1.0 Ge
Ge5 1.0000000000 0.3750000000 0.7500000000 0.1250000000  Biso 1.0 Ge
Ge6 1.0000000000 0.1250000000 0.2500000000 0.3750000000  Biso 1.0 Ge
La7 1.0000000000 0.0000000000 0.8705066177 0.0000000000  Biso 1.0 La
La8 1.0000000000 0.1294933823 0.6294933823 0.6294933823  Biso 1.0 La
La9 1.0000000000 0.5000000000 0.5000000000 0.8705066177  Biso 1.0 La
La10 1.0000000000 0.3705066177 0.0000000000 0.5000000000  Biso 1.0 La
La11 1.0000000000 0.0000000000 0.3705066177 0.0000000000  Biso 1.0 La
La12 1.0000000000 0.6294933823 0.1294933823 0.1294933823  Biso 1.0 La
La13 1.0000000000 0.8705066177 0.0000000000 0.5000000000  Biso 1.0 La
La14 1.0000000000 0.5000000000 0.5000000000 0.3705066177  Biso 1.0 La
