# AFLOW.org Repositories
# Ge3Mo5   [BCT,BCT1,tI32] (STD_PRIM doi:1
data_Ge3Mo5
_pd_phase_name Ge3Mo5
_cell_length_a  7.4597170618
_cell_length_b  7.4597170618
_cell_length_c  7.4597170618
_cell_angle_alpha  96.5160256176
_cell_angle_beta  96.5160256176
_cell_angle_gamma  140.6274678810
_symmetry_space_group_name_H-M  'P1'
_symmetry_Int_Tables_Number  1
loop_
_symmetry_equiv_pos_site_id
_symmetry_equiv_pos_as_xyz
  1  x,y,z
loop_
 _atom_site_label
 _atom_site_occupancy
 _atom_site_fract_x
 _atom_site_fract_y
 _atom_site_fract_z
 _atom_site_thermal_displace_type
 _atom_site_B_iso_or_equiv
 _atom_site_type_symbol
Ge1 1.0000000000 0.8321406701 0.6678593299 0.5000000000  Biso 1.0 Ge
Ge2 1.0000000000 0.1678593299 0.3321406701 0.5000000000  Biso 1.0 Ge
Ge3 1.0000000000 0.6678593299 0.1678593299 0.8357186599  Biso 1.0 Ge
Ge4 1.0000000000 0.3321406701 0.8321406701 0.1642813401  Biso 1.0 Ge
Ge5 1.0000000000 0.2500000000 0.2500000000 0.0000000000  Biso 1.0 Ge
Ge6 1.0000000000 0.7500000000 0.7500000000 0.0000000000  Biso 1.0 Ge
Mo7 1.0000000000 0.9226383860 0.2295671207 0.1522055067  Biso 1.0 Mo
Mo8 1.0000000000 0.0773616140 0.7704328793 0.8477944933  Biso 1.0 Mo
Mo9 1.0000000000 0.2295671207 0.0773616140 0.3069287346  Biso 1.0 Mo
Mo10 1.0000000000 0.7704328793 0.9226383860 0.6930712654  Biso 1.0 Mo
Mo11 1.0000000000 0.5773616140 0.7295671207 0.3069287346  Biso 1.0 Mo
Mo12 1.0000000000 0.4226383860 0.2704328793 0.6930712654  Biso 1.0 Mo
Mo13 1.0000000000 0.2704328793 0.5773616140 0.8477944933  Biso 1.0 Mo
Mo14 1.0000000000 0.7295671207 0.4226383860 0.1522055067  Biso 1.0 Mo
Mo15 1.0000000000 0.2500000000 0.7500000000 0.5000000000  Biso 1.0 Mo
Mo16 1.0000000000 0.7500000000 0.2500000000 0.5000000000  Biso 1.0 Mo
