# AFLOW.org Repositories
# Ge7Ni16Sc6   [FCC,FCC,cF116] (STD_PRIM d
data_Ge7Ni16Sc6
_pd_phase_name Ge7Ni16Sc6
_cell_length_a  8.2327465077
_cell_length_b  8.2327465077
_cell_length_c  8.2327465077
_cell_angle_alpha  60.0000000000
_cell_angle_beta  60.0000000000
_cell_angle_gamma  60.0000000000
_symmetry_space_group_name_H-M  'P1'
_symmetry_Int_Tables_Number  1
loop_
_symmetry_equiv_pos_site_id
_symmetry_equiv_pos_as_xyz
  1  x,y,z
loop_
 _atom_site_label
 _atom_site_occupancy
 _atom_site_fract_x
 _atom_site_fract_y
 _atom_site_fract_z
 _atom_site_thermal_displace_type
 _atom_site_B_iso_or_equiv
 _atom_site_type_symbol
Ge1 1.0000000000 0.0000000000 0.0000000000 0.0000000000  Biso 1.0 Ge
Ge2 1.0000000000 0.0000000000 0.5000000000 0.5000000000  Biso 1.0 Ge
Ge3 1.0000000000 0.5000000000 0.0000000000 0.0000000000  Biso 1.0 Ge
Ge4 1.0000000000 0.0000000000 0.0000000000 0.5000000000  Biso 1.0 Ge
Ge5 1.0000000000 0.5000000000 0.5000000000 0.0000000000  Biso 1.0 Ge
Ge6 1.0000000000 0.5000000000 0.0000000000 0.5000000000  Biso 1.0 Ge
Ge7 1.0000000000 0.0000000000 0.5000000000 0.0000000000  Biso 1.0 Ge
Ni8 1.0000000000 0.8802009418 0.8802009418 0.3593971746  Biso 1.0 Ni
Ni9 1.0000000000 0.3593971746 0.8802009418 0.8802009418  Biso 1.0 Ni
Ni10 1.0000000000 0.8802009418 0.8802009418 0.8802009418  Biso 1.0 Ni
Ni11 1.0000000000 0.8802009418 0.3593971746 0.8802009418  Biso 1.0 Ni
Ni12 1.0000000000 0.6406028254 0.1197990582 0.1197990582  Biso 1.0 Ni
Ni13 1.0000000000 0.1197990582 0.1197990582 0.6406028254  Biso 1.0 Ni
Ni14 1.0000000000 0.1197990582 0.1197990582 0.1197990582  Biso 1.0 Ni
Ni15 1.0000000000 0.1197990582 0.6406028254 0.1197990582  Biso 1.0 Ni
Ni16 1.0000000000 0.6691527841 0.6691527841 0.9925416478  Biso 1.0 Ni
Ni17 1.0000000000 0.9925416478 0.6691527841 0.6691527841  Biso 1.0 Ni
Ni18 1.0000000000 0.6691527841 0.6691527841 0.6691527841  Biso 1.0 Ni
Ni19 1.0000000000 0.6691527841 0.9925416478 0.6691527841  Biso 1.0 Ni
Ni20 1.0000000000 0.0074583522 0.3308472159 0.3308472159  Biso 1.0 Ni
Ni21 1.0000000000 0.3308472159 0.3308472159 0.0074583522  Biso 1.0 Ni
Ni22 1.0000000000 0.3308472159 0.3308472159 0.3308472159  Biso 1.0 Ni
Ni23 1.0000000000 0.3308472159 0.0074583522 0.3308472159  Biso 1.0 Ni
Sc24 1.0000000000 0.7109089786 0.2890910214 0.2890910214  Biso 1.0 Sc
Sc25 1.0000000000 0.2890910214 0.7109089786 0.7109089786  Biso 1.0 Sc
Sc26 1.0000000000 0.7109089786 0.7109089786 0.2890910214  Biso 1.0 Sc
Sc27 1.0000000000 0.2890910214 0.2890910214 0.7109089786  Biso 1.0 Sc
Sc28 1.0000000000 0.2890910214 0.7109089786 0.2890910214  Biso 1.0 Sc
Sc29 1.0000000000 0.7109089786 0.2890910214 0.7109089786  Biso 1.0 Sc
