# AFLOW.org Repositories
# H2Sr1   [HEX,HEX,hP6] (STD_PRIM doi:10.1
data_H2Sr1
_pd_phase_name H2Sr1
_cell_length_a  4.1062969183
_cell_length_b  4.1062969183
_cell_length_c  5.6263660939
_cell_angle_alpha  90.0000000000
_cell_angle_beta  90.0000000000
_cell_angle_gamma  120.0000000000
_symmetry_space_group_name_H-M  'P1'
_symmetry_Int_Tables_Number  1
loop_
_symmetry_equiv_pos_site_id
_symmetry_equiv_pos_as_xyz
  1  x,y,z
loop_
 _atom_site_label
 _atom_site_occupancy
 _atom_site_fract_x
 _atom_site_fract_y
 _atom_site_fract_z
 _atom_site_thermal_displace_type
 _atom_site_B_iso_or_equiv
 _atom_site_type_symbol
H1 1.0000000000 0.0000000000 0.0000000000 0.0000000000  Biso 1.0 H
H2 1.0000000000 0.0000000000 0.0000000000 0.5000000000  Biso 1.0 H
H3 1.0000000000 0.6666664717 0.3333329434 0.7500000000  Biso 1.0 H
H4 1.0000000000 0.3333335283 0.6666670566 0.2500000000  Biso 1.0 H
Sr5 1.0000000000 0.6666669190 0.3333338381 0.2500000000  Biso 1.0 Sr
Sr6 1.0000000000 0.3333330810 0.6666661619 0.7500000000  Biso 1.0 Sr
