# AFLOW.org Repositories
# H3Y1   [ORCC,ORCC,oS16] (STD_PRIM doi:10
data_H3Y1
_pd_phase_name H3Y1
_cell_length_a  3.6639157317
_cell_length_b  3.6639157317
_cell_length_c  6.5568795315
_cell_angle_alpha  90.0000000000
_cell_angle_beta  90.0000000000
_cell_angle_gamma  119.8774756220
_symmetry_space_group_name_H-M  'P1'
_symmetry_Int_Tables_Number  1
loop_
_symmetry_equiv_pos_site_id
_symmetry_equiv_pos_as_xyz
  1  x,y,z
loop_
 _atom_site_label
 _atom_site_occupancy
 _atom_site_fract_x
 _atom_site_fract_y
 _atom_site_fract_z
 _atom_site_thermal_displace_type
 _atom_site_B_iso_or_equiv
 _atom_site_type_symbol
H1 1.0000000000 0.8329914785 0.6659829571 0.4057154084  Biso 1.0 H
H2 1.0000000000 0.1670085215 0.3340170429 0.9057154084  Biso 1.0 H
H3 1.0000000000 0.8329914785 0.6659829571 0.0942845916  Biso 1.0 H
H4 1.0000000000 0.1670085215 0.3340170429 0.5942845916  Biso 1.0 H
H5 1.0000000000 0.5002977540 0.0000000000 0.7500000000  Biso 1.0 H
H6 1.0000000000 0.4997022460 0.0000000000 0.2500000000  Biso 1.0 H
Y7 1.0000000000 0.8331521456 0.6663042912 0.7500000000  Biso 1.0 Y
Y8 1.0000000000 0.1668478544 0.3336957088 0.2500000000  Biso 1.0 Y
