# AFLOW.org Repositories
# Hf1Ir1Si1   [ORC,ORC,oP12] (STD_PRIM doi
data_Hf1Ir1Si1
_pd_phase_name Hf1Ir1Si1
_cell_length_a  3.9440048951
_cell_length_b  6.4995184264
_cell_length_c  7.3763158850
_cell_angle_alpha  90.0000000000
_cell_angle_beta  90.0000000000
_cell_angle_gamma  90.0000000000
_symmetry_space_group_name_H-M  'P1'
_symmetry_Int_Tables_Number  1
loop_
_symmetry_equiv_pos_site_id
_symmetry_equiv_pos_as_xyz
  1  x,y,z
loop_
 _atom_site_label
 _atom_site_occupancy
 _atom_site_fract_x
 _atom_site_fract_y
 _atom_site_fract_z
 _atom_site_thermal_displace_type
 _atom_site_B_iso_or_equiv
 _atom_site_type_symbol
Hf1 1.0000000000 0.2500000000 0.0179750687 0.3170036414  Biso 1.0 Hf
Hf2 1.0000000000 0.7500000000 0.4820249313 0.8170036414  Biso 1.0 Hf
Hf3 1.0000000000 0.7500000000 0.9820249313 0.6829963586  Biso 1.0 Hf
Hf4 1.0000000000 0.2500000000 0.5179750687 0.1829963586  Biso 1.0 Hf
Ir5 1.0000000000 0.2500000000 0.1520994266 0.9335615846  Biso 1.0 Ir
Ir6 1.0000000000 0.7500000000 0.3479005734 0.4335615846  Biso 1.0 Ir
Ir7 1.0000000000 0.7500000000 0.8479005734 0.0664384154  Biso 1.0 Ir
Ir8 1.0000000000 0.2500000000 0.6520994266 0.5664384154  Biso 1.0 Ir
Si9 1.0000000000 0.2500000000 0.2767330742 0.6176608723  Biso 1.0 Si
Si10 1.0000000000 0.7500000000 0.2232669258 0.1176608723  Biso 1.0 Si
Si11 1.0000000000 0.7500000000 0.7232669258 0.3823391277  Biso 1.0 Si
Si12 1.0000000000 0.2500000000 0.7767330742 0.8823391277  Biso 1.0 Si
