# AFLOW.org Repositories
# Hf1N2   [CUB,CUB,cP12] (STD_PRIM doi:10.
data_Hf1N2
_pd_phase_name Hf1N2
_cell_length_a  5.1282525606
_cell_length_b  5.1282525606
_cell_length_c  5.1282525606
_cell_angle_alpha  90.0000000000
_cell_angle_beta  90.0000000000
_cell_angle_gamma  90.0000000000
_symmetry_space_group_name_H-M  'P1'
_symmetry_Int_Tables_Number  1
loop_
_symmetry_equiv_pos_site_id
_symmetry_equiv_pos_as_xyz
  1  x,y,z
loop_
 _atom_site_label
 _atom_site_occupancy
 _atom_site_fract_x
 _atom_site_fract_y
 _atom_site_fract_z
 _atom_site_thermal_displace_type
 _atom_site_B_iso_or_equiv
 _atom_site_type_symbol
Hf1 1.0000000000 0.0000000000 0.0000000000 0.0000000000  Biso 1.0 Hf
Hf2 1.0000000000 0.5000000000 0.0000000000 0.5000000000  Biso 1.0 Hf
Hf3 1.0000000000 0.0000000000 0.5000000000 0.5000000000  Biso 1.0 Hf
Hf4 1.0000000000 0.5000000000 0.5000000000 0.0000000000  Biso 1.0 Hf
N5 1.0000000000 0.5852198049 0.5852198049 0.4147801951  Biso 1.0 N
N6 1.0000000000 0.9147801951 0.4147801951 0.9147801951  Biso 1.0 N
N7 1.0000000000 0.4147801951 0.0852198049 0.0852198049  Biso 1.0 N
N8 1.0000000000 0.0852198049 0.9147801951 0.5852198049  Biso 1.0 N
N9 1.0000000000 0.4147801951 0.4147801951 0.5852198049  Biso 1.0 N
N10 1.0000000000 0.0852198049 0.5852198049 0.0852198049  Biso 1.0 N
N11 1.0000000000 0.5852198049 0.9147801951 0.9147801951  Biso 1.0 N
N12 1.0000000000 0.9147801951 0.0852198049 0.4147801951  Biso 1.0 N
