# AFLOW.org Repositories
# Hf1O3Sr1   [BCT,BCT2,tI20] (STD_PRIM doi
data_Hf1O3Sr1
_pd_phase_name Hf1O3Sr1
_cell_length_a  5.8324226834
_cell_length_b  5.8324226834
_cell_length_c  5.8324226834
_cell_angle_alpha  120.6498416957
_cell_angle_beta  120.6498416957
_cell_angle_gamma  88.8780787766
_symmetry_space_group_name_H-M  'P1'
_symmetry_Int_Tables_Number  1
loop_
_symmetry_equiv_pos_site_id
_symmetry_equiv_pos_as_xyz
  1  x,y,z
loop_
 _atom_site_label
 _atom_site_occupancy
 _atom_site_fract_x
 _atom_site_fract_y
 _atom_site_fract_z
 _atom_site_thermal_displace_type
 _atom_site_B_iso_or_equiv
 _atom_site_type_symbol
Hf1 1.0000000000 0.0000000000 0.0000000000 0.0000000000  Biso 1.0 Hf
Hf2 1.0000000000 0.5000000000 0.5000000000 0.0000000000  Biso 1.0 Hf
O3 1.0000000000 0.7500000000 0.7500000000 0.0000000000  Biso 1.0 O
O4 1.0000000000 0.2500000000 0.2500000000 0.0000000000  Biso 1.0 O
O5 1.0000000000 0.8038198229 0.6961801771 0.5000000000  Biso 1.0 O
O6 1.0000000000 0.1961801771 0.3038198229 0.5000000000  Biso 1.0 O
O7 1.0000000000 0.3038198229 0.8038198229 0.1076396458  Biso 1.0 O
O8 1.0000000000 0.6961801771 0.1961801771 0.8923603542  Biso 1.0 O
Sr9 1.0000000000 0.2500000000 0.7500000000 0.5000000000  Biso 1.0 Sr
Sr10 1.0000000000 0.7500000000 0.2500000000 0.5000000000  Biso 1.0 Sr
