# AFLOW.org Repositories
# Hf1P1   [HEX,HEX,hP8] (STD_PRIM doi:10.1
data_Hf1P1
_pd_phase_name Hf1P1
_cell_length_a  3.6657580812
_cell_length_b  3.6657580812
_cell_length_c  12.4174819369
_cell_angle_alpha  90.0000000000
_cell_angle_beta  90.0000000000
_cell_angle_gamma  120.0000000000
_symmetry_space_group_name_H-M  'P1'
_symmetry_Int_Tables_Number  1
loop_
_symmetry_equiv_pos_site_id
_symmetry_equiv_pos_as_xyz
  1  x,y,z
loop_
 _atom_site_label
 _atom_site_occupancy
 _atom_site_fract_x
 _atom_site_fract_y
 _atom_site_fract_z
 _atom_site_thermal_displace_type
 _atom_site_B_iso_or_equiv
 _atom_site_type_symbol
Hf1 1.0000000000 0.3333227794 0.6666772206 0.1161563321  Biso 1.0 Hf
Hf2 1.0000000000 0.6666772206 0.3333227794 0.6161563321  Biso 1.0 Hf
Hf3 1.0000000000 0.6666772206 0.3333227794 0.8838436679  Biso 1.0 Hf
Hf4 1.0000000000 0.3333227794 0.6666772206 0.3838436679  Biso 1.0 Hf
P5 1.0000000000 0.0000000000 0.0000000000 0.0000000000  Biso 1.0 P
P6 1.0000000000 0.0000000000 0.0000000000 0.5000000000  Biso 1.0 P
P7 1.0000000000 0.3333247648 0.6666752352 0.7500000000  Biso 1.0 P
P8 1.0000000000 0.6666752352 0.3333247648 0.2500000000  Biso 1.0 P
