# AFLOW.org Repositories
# Hf2S1   [HEX,HEX,hP6] (STD_PRIM doi:10.1
data_Hf2S1
_pd_phase_name Hf2S1
_cell_length_a  3.3826085101
_cell_length_b  3.3826085101
_cell_length_c  11.7997762671
_cell_angle_alpha  90.0000000000
_cell_angle_beta  90.0000000000
_cell_angle_gamma  120.0000000000
_symmetry_space_group_name_H-M  'P1'
_symmetry_Int_Tables_Number  1
loop_
_symmetry_equiv_pos_site_id
_symmetry_equiv_pos_as_xyz
  1  x,y,z
loop_
 _atom_site_label
 _atom_site_occupancy
 _atom_site_fract_x
 _atom_site_fract_y
 _atom_site_fract_z
 _atom_site_thermal_displace_type
 _atom_site_B_iso_or_equiv
 _atom_site_type_symbol
Hf1 1.0000000000 0.3333111718 0.6666888282 0.1007336786  Biso 1.0 Hf
Hf2 1.0000000000 0.6666888282 0.3333111718 0.6007336786  Biso 1.0 Hf
Hf3 1.0000000000 0.6666888282 0.3333111718 0.8992663214  Biso 1.0 Hf
Hf4 1.0000000000 0.3333111718 0.6666888282 0.3992663214  Biso 1.0 Hf
S5 1.0000000000 0.0000000000 0.0000000000 0.2500000000  Biso 1.0 S
S6 1.0000000000 0.0000000000 0.0000000000 0.7500000000  Biso 1.0 S
