# AFLOW.org Repositories
# Hf3Rh5   [ORC,ORC,oP16] (STD_PRIM doi:10
data_Hf3Rh5
_pd_phase_name Hf3Rh5
_cell_length_a  4.2833273331
_cell_length_b  5.5832237269
_cell_length_c  10.8147911712
_cell_angle_alpha  90.0000000000
_cell_angle_beta  90.0000000000
_cell_angle_gamma  90.0000000000
_symmetry_space_group_name_H-M  'P1'
_symmetry_Int_Tables_Number  1
loop_
_symmetry_equiv_pos_site_id
_symmetry_equiv_pos_as_xyz
  1  x,y,z
loop_
 _atom_site_label
 _atom_site_occupancy
 _atom_site_fract_x
 _atom_site_fract_y
 _atom_site_fract_z
 _atom_site_thermal_displace_type
 _atom_site_B_iso_or_equiv
 _atom_site_type_symbol
Hf1 1.0000000000 0.0000000000 0.0000000000 0.0000000000  Biso 1.0 Hf
Hf2 1.0000000000 0.0000000000 0.5000000000 0.5000000000  Biso 1.0 Hf
Hf3 1.0000000000 0.5000000000 0.3490890312 0.8538450649  Biso 1.0 Hf
Hf4 1.0000000000 0.5000000000 0.6509109688 0.1461549351  Biso 1.0 Hf
Hf5 1.0000000000 0.5000000000 0.1509109688 0.3538450649  Biso 1.0 Hf
Hf6 1.0000000000 0.5000000000 0.8490890312 0.6461549351  Biso 1.0 Hf
Rh7 1.0000000000 0.0000000000 0.0000000000 0.5000000000  Biso 1.0 Rh
Rh8 1.0000000000 0.0000000000 0.5000000000 0.0000000000  Biso 1.0 Rh
Rh9 1.0000000000 0.0000000000 0.1098690546 0.7600434395  Biso 1.0 Rh
Rh10 1.0000000000 0.0000000000 0.8901309454 0.2399565605  Biso 1.0 Rh
Rh11 1.0000000000 0.0000000000 0.3901309454 0.2600434395  Biso 1.0 Rh
Rh12 1.0000000000 0.0000000000 0.6098690546 0.7399565605  Biso 1.0 Rh
Rh13 1.0000000000 0.5000000000 0.3190658117 0.6060903649  Biso 1.0 Rh
Rh14 1.0000000000 0.5000000000 0.6809341883 0.3939096351  Biso 1.0 Rh
Rh15 1.0000000000 0.5000000000 0.1809341883 0.1060903649  Biso 1.0 Rh
Rh16 1.0000000000 0.5000000000 0.8190658117 0.8939096351  Biso 1.0 Rh
