# AFLOW.org Repositories
# Hf5P7Pd9   [ORCC,ORCC,oS42] (STD_PRIM do
data_Hf5P7Pd9
_pd_phase_name Hf5P7Pd9
_cell_length_a  13.7089191285
_cell_length_b  13.7089191285
_cell_length_c  3.7669743402
_cell_angle_alpha  90.0000000000
_cell_angle_beta  90.0000000000
_cell_angle_gamma  152.3560943008
_symmetry_space_group_name_H-M  'P1'
_symmetry_Int_Tables_Number  1
loop_
_symmetry_equiv_pos_site_id
_symmetry_equiv_pos_as_xyz
  1  x,y,z
loop_
 _atom_site_label
 _atom_site_occupancy
 _atom_site_fract_x
 _atom_site_fract_y
 _atom_site_fract_z
 _atom_site_thermal_displace_type
 _atom_site_B_iso_or_equiv
 _atom_site_type_symbol
Hf1 1.0000000000 0.8200266094 0.9965761845 0.0000000000  Biso 1.0 Hf
Hf2 1.0000000000 0.9965761845 0.8200266094 0.0000000000  Biso 1.0 Hf
Hf3 1.0000000000 0.5267630017 0.5267630017 0.0000000000  Biso 1.0 Hf
Hf4 1.0000000000 0.5364728350 0.0779989495 0.5000000000  Biso 1.0 Hf
Hf5 1.0000000000 0.0779989495 0.5364728350 0.5000000000  Biso 1.0 Hf
P6 1.0000000000 0.1284202141 0.1284202141 0.0000000000  Biso 1.0 P
P7 1.0000000000 0.3783085827 0.8102071433 0.0000000000  Biso 1.0 P
P8 1.0000000000 0.8102071433 0.3783085827 0.0000000000  Biso 1.0 P
P9 1.0000000000 0.5565315866 0.6918146445 0.5000000000  Biso 1.0 P
P10 1.0000000000 0.6918146445 0.5565315866 0.5000000000  Biso 1.0 P
P11 1.0000000000 0.9650883742 0.2520797905 0.5000000000  Biso 1.0 P
P12 1.0000000000 0.2520797905 0.9650883742 0.5000000000  Biso 1.0 P
Pd13 1.0000000000 0.2000684499 0.3166598688 0.5000000000  Biso 1.0 Pd
Pd14 1.0000000000 0.3166598688 0.2000684499 0.5000000000  Biso 1.0 Pd
Pd15 1.0000000000 0.5367795497 0.8505452470 0.5000000000  Biso 1.0 Pd
Pd16 1.0000000000 0.8505452470 0.5367795497 0.5000000000  Biso 1.0 Pd
Pd17 1.0000000000 0.7816713668 0.1733114142 0.0000000000  Biso 1.0 Pd
Pd18 1.0000000000 0.1733114142 0.7816713668 0.0000000000  Biso 1.0 Pd
Pd19 1.0000000000 0.8814032898 0.8814032898 0.5000000000  Biso 1.0 Pd
Pd20 1.0000000000 0.2168348210 0.4959380770 0.0000000000  Biso 1.0 Pd
Pd21 1.0000000000 0.4959380770 0.2168348210 0.0000000000  Biso 1.0 Pd
