# AFLOW.org Repositories
# Hg1Mg2   [ORC,ORC,oP12] (STD_PRIM doi:10
data_Hg1Mg2
_pd_phase_name Hg1Mg2
_cell_length_a  4.6503407606
_cell_length_b  6.2135078866
_cell_length_c  8.9506205648
_cell_angle_alpha  90.0000000000
_cell_angle_beta  90.0000000000
_cell_angle_gamma  90.0000000000
_symmetry_space_group_name_H-M  'P1'
_symmetry_Int_Tables_Number  1
loop_
_symmetry_equiv_pos_site_id
_symmetry_equiv_pos_as_xyz
  1  x,y,z
loop_
 _atom_site_label
 _atom_site_occupancy
 _atom_site_fract_x
 _atom_site_fract_y
 _atom_site_fract_z
 _atom_site_thermal_displace_type
 _atom_site_B_iso_or_equiv
 _atom_site_type_symbol
Hg1 1.0000000000 0.2500000000 0.2863339011 0.8804545541  Biso 1.0 Hg
Hg2 1.0000000000 0.7500000000 0.2136660989 0.3804545541  Biso 1.0 Hg
Hg3 1.0000000000 0.7500000000 0.7136660989 0.1195454459  Biso 1.0 Hg
Hg4 1.0000000000 0.2500000000 0.7863339011 0.6195454459  Biso 1.0 Hg
Mg5 1.0000000000 0.2500000000 0.8223671011 0.9431438945  Biso 1.0 Mg
Mg6 1.0000000000 0.7500000000 0.6776328989 0.4431438945  Biso 1.0 Mg
Mg7 1.0000000000 0.7500000000 0.1776328989 0.0568561055  Biso 1.0 Mg
Mg8 1.0000000000 0.2500000000 0.3223671011 0.5568561055  Biso 1.0 Mg
Mg9 1.0000000000 0.2500000000 0.4512062594 0.2088627249  Biso 1.0 Mg
Mg10 1.0000000000 0.7500000000 0.0487937406 0.7088627249  Biso 1.0 Mg
Mg11 1.0000000000 0.7500000000 0.5487937406 0.7911372751  Biso 1.0 Mg
Mg12 1.0000000000 0.2500000000 0.9512062594 0.2911372751  Biso 1.0 Mg
