# AFLOW.org Repositories
# Hg1Sr3   [ORC,ORC,oP16] (STD_PRIM doi:10
data_Hg1Sr3
_pd_phase_name Hg1Sr3
_cell_length_a  7.4646403172
_cell_length_b  8.5688280524
_cell_length_c  11.1535482277
_cell_angle_alpha  90.0000000000
_cell_angle_beta  90.0000000000
_cell_angle_gamma  90.0000000000
_symmetry_space_group_name_H-M  'P1'
_symmetry_Int_Tables_Number  1
loop_
_symmetry_equiv_pos_site_id
_symmetry_equiv_pos_as_xyz
  1  x,y,z
loop_
 _atom_site_label
 _atom_site_occupancy
 _atom_site_fract_x
 _atom_site_fract_y
 _atom_site_fract_z
 _atom_site_thermal_displace_type
 _atom_site_B_iso_or_equiv
 _atom_site_type_symbol
Hg1 1.0000000000 0.5570219890 0.3789946941 0.7500000000  Biso 1.0 Hg
Hg2 1.0000000000 0.0570219890 0.1210053059 0.2500000000  Biso 1.0 Hg
Hg3 1.0000000000 0.4429780110 0.6210053059 0.2500000000  Biso 1.0 Hg
Hg4 1.0000000000 0.9429780110 0.8789946941 0.7500000000  Biso 1.0 Hg
Sr5 1.0000000000 0.8379809619 0.1779756143 0.9358872797  Biso 1.0 Sr
Sr6 1.0000000000 0.3379809619 0.3220243857 0.0641127203  Biso 1.0 Sr
Sr7 1.0000000000 0.1620190381 0.8220243857 0.4358872797  Biso 1.0 Sr
Sr8 1.0000000000 0.6620190381 0.6779756143 0.5641127203  Biso 1.0 Sr
Sr9 1.0000000000 0.1620190381 0.8220243857 0.0641127203  Biso 1.0 Sr
Sr10 1.0000000000 0.6620190381 0.6779756143 0.9358872797  Biso 1.0 Sr
Sr11 1.0000000000 0.8379809619 0.1779756143 0.5641127203  Biso 1.0 Sr
Sr12 1.0000000000 0.3379809619 0.3220243857 0.4358872797  Biso 1.0 Sr
Sr13 1.0000000000 0.3546722989 0.0352643606 0.7500000000  Biso 1.0 Sr
Sr14 1.0000000000 0.8546722989 0.4647356394 0.2500000000  Biso 1.0 Sr
Sr15 1.0000000000 0.6453277011 0.9647356394 0.2500000000  Biso 1.0 Sr
Sr16 1.0000000000 0.1453277011 0.5352643606 0.7500000000  Biso 1.0 Sr
