# AFLOW.org Repositories
# Hg2Y1   [HEX,HEX,hP3] (STD_PRIM doi:10.1
data_Hg2Y1
_pd_phase_name Hg2Y1
_cell_length_a  4.9439557074
_cell_length_b  4.9439557074
_cell_length_c  3.4556098284
_cell_angle_alpha  90.0000000000
_cell_angle_beta  90.0000000000
_cell_angle_gamma  120.0000000000
_symmetry_space_group_name_H-M  'P1'
_symmetry_Int_Tables_Number  1
loop_
_symmetry_equiv_pos_site_id
_symmetry_equiv_pos_as_xyz
  1  x,y,z
loop_
 _atom_site_label
 _atom_site_occupancy
 _atom_site_fract_x
 _atom_site_fract_y
 _atom_site_fract_z
 _atom_site_thermal_displace_type
 _atom_site_B_iso_or_equiv
 _atom_site_type_symbol
Hg1 1.0000000000 0.3333289029 0.6666644514 0.5000000000  Biso 1.0 Hg
Hg2 1.0000000000 0.6666710971 0.3333355486 0.5000000000  Biso 1.0 Hg
Y3 1.0000000000 0.0000000000 0.0000000000 0.0000000000  Biso 1.0 Y
