# AFLOW.org Repositories
# Ho1   [HEX,HEX,hP2] (STD_PRIM doi:10.101
data_Ho1
_pd_phase_name Ho1
_cell_length_a  3.6019596123
_cell_length_b  3.6019596123
_cell_length_c  5.5833813889
_cell_angle_alpha  90.0000000000
_cell_angle_beta  90.0000000000
_cell_angle_gamma  120.0000000000
_symmetry_space_group_name_H-M  'P1'
_symmetry_Int_Tables_Number  1
loop_
_symmetry_equiv_pos_site_id
_symmetry_equiv_pos_as_xyz
  1  x,y,z
loop_
 _atom_site_label
 _atom_site_occupancy
 _atom_site_fract_x
 _atom_site_fract_y
 _atom_site_fract_z
 _atom_site_thermal_displace_type
 _atom_site_B_iso_or_equiv
 _atom_site_type_symbol
Ho1 1.0000000000 0.3333681532 0.6666840766 0.2500000000  Biso 1.0 Ho
Ho2 1.0000000000 0.6666318468 0.3333159234 0.7500000000  Biso 1.0 Ho
