# AFLOW.org Repositories
# Ho1Os2   [HEX,HEX,hP12] (STD_PRIM doi:10
data_Ho1Os2
_pd_phase_name Ho1Os2
_cell_length_a  5.2604974408
_cell_length_b  5.2604974408
_cell_length_c  8.9601677962
_cell_angle_alpha  90.0000000000
_cell_angle_beta  90.0000000000
_cell_angle_gamma  120.0000000000
_symmetry_space_group_name_H-M  'P1'
_symmetry_Int_Tables_Number  1
loop_
_symmetry_equiv_pos_site_id
_symmetry_equiv_pos_as_xyz
  1  x,y,z
loop_
 _atom_site_label
 _atom_site_occupancy
 _atom_site_fract_x
 _atom_site_fract_y
 _atom_site_fract_z
 _atom_site_thermal_displace_type
 _atom_site_B_iso_or_equiv
 _atom_site_type_symbol
Ho1 1.0000000000 0.3333313777 0.6666686223 0.0657344570  Biso 1.0 Ho
Ho2 1.0000000000 0.6666686223 0.3333313777 0.5657344570  Biso 1.0 Ho
Ho3 1.0000000000 0.6666686223 0.3333313777 0.9342655430  Biso 1.0 Ho
Ho4 1.0000000000 0.3333313777 0.6666686223 0.4342655430  Biso 1.0 Ho
Os5 1.0000000000 0.0000000000 0.0000000000 0.0000000000  Biso 1.0 Os
Os6 1.0000000000 0.0000000000 0.0000000000 0.5000000000  Biso 1.0 Os
Os7 1.0000000000 0.8292375388 0.6584869767 0.2500000000  Biso 1.0 Os
Os8 1.0000000000 0.3415130233 0.1707624612 0.2500000000  Biso 1.0 Os
Os9 1.0000000000 0.8292437265 0.1707562735 0.2500000000  Biso 1.0 Os
Os10 1.0000000000 0.1707624612 0.3415130233 0.7500000000  Biso 1.0 Os
Os11 1.0000000000 0.6584869767 0.8292375388 0.7500000000  Biso 1.0 Os
Os12 1.0000000000 0.1707562735 0.8292437265 0.7500000000  Biso 1.0 Os
