# AFLOW.org Repositories
# Ho1Pd3S4   [CUB,CUB,cP16] (STD_PRIM doi:
data_Ho1Pd3S4
_pd_phase_name Ho1Pd3S4
_cell_length_a  6.6968628826
_cell_length_b  6.6968628826
_cell_length_c  6.6968628826
_cell_angle_alpha  90.0000000000
_cell_angle_beta  90.0000000000
_cell_angle_gamma  90.0000000000
_symmetry_space_group_name_H-M  'P1'
_symmetry_Int_Tables_Number  1
loop_
_symmetry_equiv_pos_site_id
_symmetry_equiv_pos_as_xyz
  1  x,y,z
loop_
 _atom_site_label
 _atom_site_occupancy
 _atom_site_fract_x
 _atom_site_fract_y
 _atom_site_fract_z
 _atom_site_thermal_displace_type
 _atom_site_B_iso_or_equiv
 _atom_site_type_symbol
Ho1 1.0000000000 0.0000000000 0.0000000000 0.0000000000  Biso 1.0 Ho
Ho2 1.0000000000 0.5000000000 0.5000000000 0.5000000000  Biso 1.0 Ho
Pd3 1.0000000000 0.7500000000 0.5000000000 0.0000000000  Biso 1.0 Pd
Pd4 1.0000000000 0.2500000000 0.5000000000 0.0000000000  Biso 1.0 Pd
Pd5 1.0000000000 0.0000000000 0.7500000000 0.5000000000  Biso 1.0 Pd
Pd6 1.0000000000 0.0000000000 0.2500000000 0.5000000000  Biso 1.0 Pd
Pd7 1.0000000000 0.5000000000 0.0000000000 0.2500000000  Biso 1.0 Pd
Pd8 1.0000000000 0.5000000000 0.0000000000 0.7500000000  Biso 1.0 Pd
S9 1.0000000000 0.7500000000 0.7500000000 0.2500000000  Biso 1.0 S
S10 1.0000000000 0.2500000000 0.2500000000 0.2500000000  Biso 1.0 S
S11 1.0000000000 0.2500000000 0.7500000000 0.7500000000  Biso 1.0 S
S12 1.0000000000 0.7500000000 0.2500000000 0.7500000000  Biso 1.0 S
S13 1.0000000000 0.2500000000 0.2500000000 0.7500000000  Biso 1.0 S
S14 1.0000000000 0.7500000000 0.7500000000 0.7500000000  Biso 1.0 S
S15 1.0000000000 0.7500000000 0.2500000000 0.2500000000  Biso 1.0 S
S16 1.0000000000 0.2500000000 0.7500000000 0.2500000000  Biso 1.0 S
