# AFLOW.org Repositories
# Ho4In1Rh1   [FCC,FCC,cF96] (STD_PRIM doi
data_Ho4In1Rh1
_pd_phase_name Ho4In1Rh1
_cell_length_a  9.5900208682
_cell_length_b  9.5900208682
_cell_length_c  9.5900208682
_cell_angle_alpha  60.0000000000
_cell_angle_beta  60.0000000000
_cell_angle_gamma  60.0000000000
_symmetry_space_group_name_H-M  'P1'
_symmetry_Int_Tables_Number  1
loop_
_symmetry_equiv_pos_site_id
_symmetry_equiv_pos_as_xyz
  1  x,y,z
loop_
 _atom_site_label
 _atom_site_occupancy
 _atom_site_fract_x
 _atom_site_fract_y
 _atom_site_fract_z
 _atom_site_thermal_displace_type
 _atom_site_B_iso_or_equiv
 _atom_site_type_symbol
Ho1 1.0000000000 0.4372056577 0.0627943423 0.0627943423  Biso 1.0 Ho
Ho2 1.0000000000 0.0627943423 0.4372056577 0.4372056577  Biso 1.0 Ho
Ho3 1.0000000000 0.4372056577 0.0627943423 0.4372056577  Biso 1.0 Ho
Ho4 1.0000000000 0.0627943423 0.4372056577 0.0627943423  Biso 1.0 Ho
Ho5 1.0000000000 0.0627943423 0.0627943423 0.4372056577  Biso 1.0 Ho
Ho6 1.0000000000 0.4372056577 0.4372056577 0.0627943423  Biso 1.0 Ho
Ho7 1.0000000000 0.8109120572 0.1890879428 0.1890879428  Biso 1.0 Ho
Ho8 1.0000000000 0.1890879428 0.8109120572 0.8109120572  Biso 1.0 Ho
Ho9 1.0000000000 0.8109120572 0.1890879428 0.8109120572  Biso 1.0 Ho
Ho10 1.0000000000 0.1890879428 0.8109120572 0.1890879428  Biso 1.0 Ho
Ho11 1.0000000000 0.1890879428 0.1890879428 0.8109120572  Biso 1.0 Ho
Ho12 1.0000000000 0.8109120572 0.8109120572 0.1890879428  Biso 1.0 Ho
Ho13 1.0000000000 0.6507776199 0.0476671403 0.6507776199  Biso 1.0 Ho
Ho14 1.0000000000 0.0476671403 0.6507776199 0.6507776199  Biso 1.0 Ho
Ho15 1.0000000000 0.6507776199 0.6507776199 0.6507776199  Biso 1.0 Ho
Ho16 1.0000000000 0.6507776199 0.6507776199 0.0476671403  Biso 1.0 Ho
In17 1.0000000000 0.4172896672 0.7481309984 0.4172896672  Biso 1.0 In
In18 1.0000000000 0.7481309984 0.4172896672 0.4172896672  Biso 1.0 In
In19 1.0000000000 0.4172896672 0.4172896672 0.4172896672  Biso 1.0 In
In20 1.0000000000 0.4172896672 0.4172896672 0.7481309984  Biso 1.0 In
Rh21 1.0000000000 0.8576094554 0.4271716337 0.8576094554  Biso 1.0 Rh
Rh22 1.0000000000 0.4271716337 0.8576094554 0.8576094554  Biso 1.0 Rh
Rh23 1.0000000000 0.8576094554 0.8576094554 0.8576094554  Biso 1.0 Rh
Rh24 1.0000000000 0.8576094554 0.8576094554 0.4271716337  Biso 1.0 Rh
