# AFLOW.org Repositories
# In1La1O3   [ORC,ORC,oP20] (STD_PRIM doi:
data_In1La1O3
_pd_phase_name In1La1O3
_cell_length_a  5.7907822317
_cell_length_b  6.0164579784
_cell_length_c  8.3357553906
_cell_angle_alpha  90.0000000000
_cell_angle_beta  90.0000000000
_cell_angle_gamma  90.0000000000
_symmetry_space_group_name_H-M  'P1'
_symmetry_Int_Tables_Number  1
loop_
_symmetry_equiv_pos_site_id
_symmetry_equiv_pos_as_xyz
  1  x,y,z
loop_
 _atom_site_label
 _atom_site_occupancy
 _atom_site_fract_x
 _atom_site_fract_y
 _atom_site_fract_z
 _atom_site_thermal_displace_type
 _atom_site_B_iso_or_equiv
 _atom_site_type_symbol
In1 1.0000000000 0.5000000000 0.0000000000 0.0000000000  Biso 1.0 In
In2 1.0000000000 0.0000000000 0.5000000000 0.0000000000  Biso 1.0 In
In3 1.0000000000 0.5000000000 0.0000000000 0.5000000000  Biso 1.0 In
In4 1.0000000000 0.0000000000 0.5000000000 0.5000000000  Biso 1.0 In
La5 1.0000000000 0.9831598714 0.9446823892 0.7500000000  Biso 1.0 La
La6 1.0000000000 0.4831598714 0.5553176108 0.2500000000  Biso 1.0 La
La7 1.0000000000 0.0168401286 0.0553176108 0.2500000000  Biso 1.0 La
La8 1.0000000000 0.5168401286 0.4446823892 0.7500000000  Biso 1.0 La
O9 1.0000000000 0.3882633357 0.0439082105 0.7500000000  Biso 1.0 O
O10 1.0000000000 0.8882633357 0.4560917895 0.2500000000  Biso 1.0 O
O11 1.0000000000 0.6117366643 0.9560917895 0.2500000000  Biso 1.0 O
O12 1.0000000000 0.1117366643 0.5439082105 0.7500000000  Biso 1.0 O
O13 1.0000000000 0.8007159587 0.2008808178 0.9404527202  Biso 1.0 O
O14 1.0000000000 0.3007159587 0.2991191822 0.0595472798  Biso 1.0 O
O15 1.0000000000 0.1992840413 0.7991191822 0.4404527202  Biso 1.0 O
O16 1.0000000000 0.6992840413 0.7008808178 0.5595472798  Biso 1.0 O
O17 1.0000000000 0.1992840413 0.7991191822 0.0595472798  Biso 1.0 O
O18 1.0000000000 0.6992840413 0.7008808178 0.9404527202  Biso 1.0 O
O19 1.0000000000 0.8007159587 0.2008808178 0.5595472798  Biso 1.0 O
O20 1.0000000000 0.3007159587 0.2991191822 0.4404527202  Biso 1.0 O
