# AFLOW.org Repositories
# In1S3Sb1   [ORC,ORC,oP20] (STD_PRIM doi:
data_In1S3Sb1
_pd_phase_name In1S3Sb1
_cell_length_a  3.8818845537
_cell_length_b  9.5036563868
_cell_length_c  13.4963506657
_cell_angle_alpha  90.0000000000
_cell_angle_beta  90.0000000000
_cell_angle_gamma  90.0000000000
_symmetry_space_group_name_H-M  'P1'
_symmetry_Int_Tables_Number  1
loop_
_symmetry_equiv_pos_site_id
_symmetry_equiv_pos_as_xyz
  1  x,y,z
loop_
 _atom_site_label
 _atom_site_occupancy
 _atom_site_fract_x
 _atom_site_fract_y
 _atom_site_fract_z
 _atom_site_thermal_displace_type
 _atom_site_B_iso_or_equiv
 _atom_site_type_symbol
In1 1.0000000000 0.2500000000 0.6485517178 0.5436843449  Biso 1.0 In
In2 1.0000000000 0.7500000000 0.8514482822 0.0436843449  Biso 1.0 In
In3 1.0000000000 0.7500000000 0.3514482822 0.4563156551  Biso 1.0 In
In4 1.0000000000 0.2500000000 0.1485517178 0.9563156551  Biso 1.0 In
S5 1.0000000000 0.2500000000 0.4998875673 0.3842802794  Biso 1.0 S
S6 1.0000000000 0.7500000000 0.0000000000 0.8842802794  Biso 1.0 S
S7 1.0000000000 0.7500000000 0.5001124327 0.6157197206  Biso 1.0 S
S8 1.0000000000 0.2500000000 0.0000000000 0.1157197206  Biso 1.0 S
S9 1.0000000000 0.2500000000 0.1600285674 0.5200884894  Biso 1.0 S
S10 1.0000000000 0.7500000000 0.3399714326 0.0200884894  Biso 1.0 S
S11 1.0000000000 0.7500000000 0.8399714326 0.4799115106  Biso 1.0 S
S12 1.0000000000 0.2500000000 0.6600285674 0.9799115106  Biso 1.0 S
S13 1.0000000000 0.2500000000 0.8112564411 0.7009624230  Biso 1.0 S
S14 1.0000000000 0.7500000000 0.6887435589 0.2009624230  Biso 1.0 S
S15 1.0000000000 0.7500000000 0.1887435589 0.2990375770  Biso 1.0 S
S16 1.0000000000 0.2500000000 0.3112564411 0.7990375770  Biso 1.0 S
Sb17 1.0000000000 0.2500000000 0.0280457773 0.3577628171  Biso 1.0 Sb
Sb18 1.0000000000 0.7500000000 0.4719542227 0.8577628171  Biso 1.0 Sb
Sb19 1.0000000000 0.7500000000 0.9719542227 0.6422371829  Biso 1.0 Sb
Sb20 1.0000000000 0.2500000000 0.5280457773 0.1422371829  Biso 1.0 Sb
