# AFLOW.org Repositories
# In3Rh2Ti3                               
data_In3Rh2Ti3
_pd_phase_name In3Rh2Ti3
_cell_length_a  7.3298544010
_cell_length_b  7.3298544010
_cell_length_c  3.1380639309
_cell_angle_alpha  90.0000000000
_cell_angle_beta  90.0000000000
_cell_angle_gamma  120.0000000000
_symmetry_space_group_name_H-M  'P1'
_symmetry_Int_Tables_Number  1
loop_
_symmetry_equiv_pos_site_id
_symmetry_equiv_pos_as_xyz
  1  x,y,z
loop_
 _atom_site_label
 _atom_site_occupancy
 _atom_site_fract_x
 _atom_site_fract_y
 _atom_site_fract_z
 _atom_site_thermal_displace_type
 _atom_site_B_iso_or_equiv
 _atom_site_type_symbol
In1 1.0000000000 0.7644035871 0.0000000000 0.0000000000  Biso 1.0 In
In2 1.0000000000 0.0000000000 0.7644035871 0.0000000000  Biso 1.0 In
In3 1.0000000000 0.2357017097 0.2357017097 0.0000000000  Biso 1.0 In
Rh4 1.0000000000 0.3331540071 0.6664901676 0.0000000000  Biso 1.0 Rh
Rh5 1.0000000000 0.6664901676 0.3331540071 0.0000000000  Biso 1.0 Rh
Ti6 1.0000000000 0.4222644977 0.0000000000 0.5000000000  Biso 1.0 Ti
Ti7 1.0000000000 0.0000000000 0.4222644977 0.5000000000  Biso 1.0 Ti
Ti8 1.0000000000 0.5779709851 0.5779709851 0.5000000000  Biso 1.0 Ti
