# AFLOW.org Repositories
# Ir1Li2Mg1   [CUB,CUB,cP16] (STD_PRIM doi
data_Ir1Li2Mg1
_pd_phase_name Ir1Li2Mg1
_cell_length_a  6.1625524909
_cell_length_b  6.1625524909
_cell_length_c  6.1625524909
_cell_angle_alpha  90.0000000000
_cell_angle_beta  90.0000000000
_cell_angle_gamma  90.0000000000
_symmetry_space_group_name_H-M  'P1'
_symmetry_Int_Tables_Number  1
loop_
_symmetry_equiv_pos_site_id
_symmetry_equiv_pos_as_xyz
  1  x,y,z
loop_
 _atom_site_label
 _atom_site_occupancy
 _atom_site_fract_x
 _atom_site_fract_y
 _atom_site_fract_z
 _atom_site_thermal_displace_type
 _atom_site_B_iso_or_equiv
 _atom_site_type_symbol
Ir1 1.0000000000 0.2518278025 0.2518278025 0.7481721975  Biso 1.0 Ir
Ir2 1.0000000000 0.7481721975 0.7481721975 0.7481721975  Biso 1.0 Ir
Ir3 1.0000000000 0.7481721975 0.2518278025 0.2518278025  Biso 1.0 Ir
Ir4 1.0000000000 0.2518278025 0.7481721975 0.2518278025  Biso 1.0 Ir
Li5 1.0000000000 0.5000000000 0.5000000000 0.5000000000  Biso 1.0 Li
Li6 1.0000000000 0.0000000000 0.5000000000 0.5000000000  Biso 1.0 Li
Li7 1.0000000000 0.5000000000 0.0000000000 0.5000000000  Biso 1.0 Li
Li8 1.0000000000 0.5000000000 0.5000000000 0.0000000000  Biso 1.0 Li
Li9 1.0000000000 0.7309856520 0.7309856520 0.2690143480  Biso 1.0 Li
Li10 1.0000000000 0.2690143480 0.2690143480 0.2690143480  Biso 1.0 Li
Li11 1.0000000000 0.2690143480 0.7309856520 0.7309856520  Biso 1.0 Li
Li12 1.0000000000 0.7309856520 0.2690143480 0.7309856520  Biso 1.0 Li
Mg13 1.0000000000 0.0000000000 0.0000000000 0.0000000000  Biso 1.0 Mg
Mg14 1.0000000000 0.5000000000 0.0000000000 0.0000000000  Biso 1.0 Mg
Mg15 1.0000000000 0.0000000000 0.5000000000 0.0000000000  Biso 1.0 Mg
Mg16 1.0000000000 0.0000000000 0.0000000000 0.5000000000  Biso 1.0 Mg
