# AFLOW.org Repositories
# Ir1La1Si3   [BCT,BCT2,tI10] (STD_PRIM do
data_Ir1La1Si3
_pd_phase_name Ir1La1Si3
_cell_length_a  5.7962072366
_cell_length_b  5.7962072366
_cell_length_c  5.7962072366
_cell_angle_alpha  136.4256778746
_cell_angle_beta  136.4256778746
_cell_angle_gamma  63.3229126795
_symmetry_space_group_name_H-M  'P1'
_symmetry_Int_Tables_Number  1
loop_
_symmetry_equiv_pos_site_id
_symmetry_equiv_pos_as_xyz
  1  x,y,z
loop_
 _atom_site_label
 _atom_site_occupancy
 _atom_site_fract_x
 _atom_site_fract_y
 _atom_site_fract_z
 _atom_site_thermal_displace_type
 _atom_site_B_iso_or_equiv
 _atom_site_type_symbol
Ir1 1.0000000000 0.0015591640 0.0015591640 0.0000000000  Biso 1.0 Ir
La2 1.0000000000 0.3461895405 0.3461895405 0.0000000000  Biso 1.0 La
Si3 1.0000000000 0.1080270485 0.6080270485 0.5000000000  Biso 1.0 Si
Si4 1.0000000000 0.6080270485 0.1080270485 0.5000000000  Biso 1.0 Si
Si5 1.0000000000 0.7591971986 0.7591971986 0.0000000000  Biso 1.0 Si
