# AFLOW.org Repositories
# Ir1S1Sb1   [ORC,ORC,oP12] (STD_PRIM doi:
data_Ir1S1Sb1
_pd_phase_name Ir1S1Sb1
_cell_length_a  6.0835033198
_cell_length_b  6.0983518909
_cell_length_c  6.0986039414
_cell_angle_alpha  90.0000000000
_cell_angle_beta  90.0000000000
_cell_angle_gamma  90.0000000000
_symmetry_space_group_name_H-M  'P1'
_symmetry_Int_Tables_Number  1
loop_
_symmetry_equiv_pos_site_id
_symmetry_equiv_pos_as_xyz
  1  x,y,z
loop_
 _atom_site_label
 _atom_site_occupancy
 _atom_site_fract_x
 _atom_site_fract_y
 _atom_site_fract_z
 _atom_site_thermal_displace_type
 _atom_site_B_iso_or_equiv
 _atom_site_type_symbol
Ir1 1.0000000000 0.7667646349 0.0000000000 0.9895906233  Biso 1.0 Ir
Ir2 1.0000000000 0.2332353651 0.4991810447 0.0104093767  Biso 1.0 Ir
Ir3 1.0000000000 0.2332353651 0.0000000000 0.4895906233  Biso 1.0 Ir
Ir4 1.0000000000 0.7667646349 0.4991810447 0.5104093767  Biso 1.0 Ir
S5 1.0000000000 0.1265255551 0.6204291865 0.3816165548  Biso 1.0 S
S6 1.0000000000 0.8734744449 0.1204291865 0.6183834452  Biso 1.0 S
S7 1.0000000000 0.8734744449 0.6204291865 0.8816165548  Biso 1.0 S
S8 1.0000000000 0.1265255551 0.1204291865 0.1183834452  Biso 1.0 S
Sb9 1.0000000000 0.3655798404 0.3825897689 0.6196997368  Biso 1.0 Sb
Sb10 1.0000000000 0.6344201596 0.8825897689 0.3803002632  Biso 1.0 Sb
Sb11 1.0000000000 0.6344201596 0.3825897689 0.1196997368  Biso 1.0 Sb
Sb12 1.0000000000 0.3655798404 0.8825897689 0.8803002632  Biso 1.0 Sb
