# AFLOW.org Repositories
# Ir1Sn1Zr1   [HEX,HEX,hP18] (STD_PRIM doi
data_Ir1Sn1Zr1
_pd_phase_name Ir1Sn1Zr1
_cell_length_a  7.4193600553
_cell_length_b  7.4193600553
_cell_length_c  7.3868858629
_cell_angle_alpha  90.0000000000
_cell_angle_beta  90.0000000000
_cell_angle_gamma  120.0000000000
_symmetry_space_group_name_H-M  'P1'
_symmetry_Int_Tables_Number  1
loop_
_symmetry_equiv_pos_site_id
_symmetry_equiv_pos_as_xyz
  1  x,y,z
loop_
 _atom_site_label
 _atom_site_occupancy
 _atom_site_fract_x
 _atom_site_fract_y
 _atom_site_fract_z
 _atom_site_thermal_displace_type
 _atom_site_B_iso_or_equiv
 _atom_site_type_symbol
Ir1 1.0000000000 0.0000000000 0.0000000000 0.2500000000  Biso 1.0 Ir
Ir2 1.0000000000 0.0000000000 0.0000000000 0.7500000000  Biso 1.0 Ir
Ir3 1.0000000000 0.3333322432 0.6666653691 0.0383668216  Biso 1.0 Ir
Ir4 1.0000000000 0.3333322432 0.6666653691 0.4616331784  Biso 1.0 Ir
Ir5 1.0000000000 0.6666677568 0.3333331258 0.9616331784  Biso 1.0 Ir
Ir6 1.0000000000 0.6666677568 0.3333331258 0.5383668216  Biso 1.0 Ir
Sn7 1.0000000000 0.2704269275 0.2704269275 0.0000000000  Biso 1.0 Sn
Sn8 1.0000000000 0.7295607052 0.0000000000 0.0000000000  Biso 1.0 Sn
Sn9 1.0000000000 0.0000000000 0.7295492678 0.0000000000  Biso 1.0 Sn
Sn10 1.0000000000 0.2704269275 0.2704269275 0.5000008185  Biso 1.0 Sn
Sn11 1.0000000000 0.7295607052 0.0000000000 0.4999991815  Biso 1.0 Sn
Sn12 1.0000000000 0.0000000000 0.7295492678 0.5000000000  Biso 1.0 Sn
Zr13 1.0000000000 0.6130260032 0.5944363390 0.2500000000  Biso 1.0 Zr
Zr14 1.0000000000 0.4055715943 0.0185977233 0.2500000000  Biso 1.0 Zr
Zr15 1.0000000000 0.9814158880 0.3869807827 0.2500000000  Biso 1.0 Zr
Zr16 1.0000000000 0.3869739968 0.9814103358 0.7500000000  Biso 1.0 Zr
Zr17 1.0000000000 0.5944284057 0.6130261289 0.7500000000  Biso 1.0 Zr
Zr18 1.0000000000 0.0185841120 0.4055648947 0.7500000000  Biso 1.0 Zr
