# AFLOW.org Repositories
# Ir1Zr2   [FCC,FCC,cF96] (STD_PRIM doi:10
data_Ir1Zr2
_pd_phase_name Ir1Zr2
_cell_length_a  8.8361283357
_cell_length_b  8.8361283357
_cell_length_c  8.8361283357
_cell_angle_alpha  60.0000000000
_cell_angle_beta  60.0000000000
_cell_angle_gamma  60.0000000000
_symmetry_space_group_name_H-M  'P1'
_symmetry_Int_Tables_Number  1
loop_
_symmetry_equiv_pos_site_id
_symmetry_equiv_pos_as_xyz
  1  x,y,z
loop_
 _atom_site_label
 _atom_site_occupancy
 _atom_site_fract_x
 _atom_site_fract_y
 _atom_site_fract_z
 _atom_site_thermal_displace_type
 _atom_site_B_iso_or_equiv
 _atom_site_type_symbol
Ir1 1.0000000000 0.2236849547 0.3289451358 0.2236849547  Biso 1.0 Ir
Ir2 1.0000000000 0.8289451358 0.7236849547 0.2236849547  Biso 1.0 Ir
Ir3 1.0000000000 0.2236849547 0.7236849547 0.2236849547  Biso 1.0 Ir
Ir4 1.0000000000 0.2236849547 0.7236849547 0.8289451358  Biso 1.0 Ir
Ir5 1.0000000000 0.1710548642 0.2763150453 0.7763150453  Biso 1.0 Ir
Ir6 1.0000000000 0.7763150453 0.6710548642 0.7763150453  Biso 1.0 Ir
Ir7 1.0000000000 0.7763150453 0.2763150453 0.7763150453  Biso 1.0 Ir
Ir8 1.0000000000 0.7763150453 0.2763150453 0.1710548642  Biso 1.0 Ir
Zr9 1.0000000000 0.0000000000 0.0000000000 0.0000000000  Biso 1.0 Zr
Zr10 1.0000000000 0.5000000000 0.5000000000 0.0000000000  Biso 1.0 Zr
Zr11 1.0000000000 0.0000000000 0.5000000000 0.0000000000  Biso 1.0 Zr
Zr12 1.0000000000 0.0000000000 0.5000000000 0.5000000000  Biso 1.0 Zr
Zr13 1.0000000000 0.4383831460 0.3116168540 0.8116168540  Biso 1.0 Zr
Zr14 1.0000000000 0.8116168540 0.9383831460 0.4383831460  Biso 1.0 Zr
Zr15 1.0000000000 0.4383831460 0.3116168540 0.4383831460  Biso 1.0 Zr
Zr16 1.0000000000 0.8116168540 0.9383831460 0.8116168540  Biso 1.0 Zr
Zr17 1.0000000000 0.8116168540 0.3116168540 0.4383831460  Biso 1.0 Zr
Zr18 1.0000000000 0.4383831460 0.9383831460 0.8116168540  Biso 1.0 Zr
Zr19 1.0000000000 0.1883831460 0.0616168540 0.1883831460  Biso 1.0 Zr
Zr20 1.0000000000 0.5616168540 0.6883831460 0.5616168540  Biso 1.0 Zr
Zr21 1.0000000000 0.1883831460 0.0616168540 0.5616168540  Biso 1.0 Zr
Zr22 1.0000000000 0.5616168540 0.6883831460 0.1883831460  Biso 1.0 Zr
Zr23 1.0000000000 0.1883831460 0.6883831460 0.5616168540  Biso 1.0 Zr
Zr24 1.0000000000 0.5616168540 0.0616168540 0.1883831460  Biso 1.0 Zr
