# AFLOW.org Repositories
# La1Ru1Sn3   [CUB,CUB,cP40] (STD_PRIM doi
data_La1Ru1Sn3
_pd_phase_name La1Ru1Sn3
_cell_length_a  9.9605360521
_cell_length_b  9.9605360521
_cell_length_c  9.9605360521
_cell_angle_alpha  90.0000000000
_cell_angle_beta  90.0000000000
_cell_angle_gamma  90.0000000000
_symmetry_space_group_name_H-M  'P1'
_symmetry_Int_Tables_Number  1
loop_
_symmetry_equiv_pos_site_id
_symmetry_equiv_pos_as_xyz
  1  x,y,z
loop_
 _atom_site_label
 _atom_site_occupancy
 _atom_site_fract_x
 _atom_site_fract_y
 _atom_site_fract_z
 _atom_site_thermal_displace_type
 _atom_site_B_iso_or_equiv
 _atom_site_type_symbol
La1 1.0000000000 0.0000000000 0.0000000000 0.0000000000  Biso 1.0 La
La2 1.0000000000 0.5000000000 0.5000000000 0.5000000000  Biso 1.0 La
La3 1.0000000000 0.7500000000 0.5000000000 0.0000000000  Biso 1.0 La
La4 1.0000000000 0.2500000000 0.5000000000 0.0000000000  Biso 1.0 La
La5 1.0000000000 0.0000000000 0.7500000000 0.5000000000  Biso 1.0 La
La6 1.0000000000 0.0000000000 0.2500000000 0.5000000000  Biso 1.0 La
La7 1.0000000000 0.5000000000 0.0000000000 0.2500000000  Biso 1.0 La
La8 1.0000000000 0.5000000000 0.0000000000 0.7500000000  Biso 1.0 La
Ru9 1.0000000000 0.7500000000 0.7500000000 0.2500000000  Biso 1.0 Ru
Ru10 1.0000000000 0.2500000000 0.2500000000 0.2500000000  Biso 1.0 Ru
Ru11 1.0000000000 0.2500000000 0.7500000000 0.7500000000  Biso 1.0 Ru
Ru12 1.0000000000 0.7500000000 0.2500000000 0.7500000000  Biso 1.0 Ru
Ru13 1.0000000000 0.2500000000 0.2500000000 0.7500000000  Biso 1.0 Ru
Ru14 1.0000000000 0.7500000000 0.7500000000 0.7500000000  Biso 1.0 Ru
Ru15 1.0000000000 0.7500000000 0.2500000000 0.2500000000  Biso 1.0 Ru
Ru16 1.0000000000 0.2500000000 0.7500000000 0.2500000000  Biso 1.0 Ru
Sn17 1.0000000000 0.0000000000 0.6865902469 0.1575352973  Biso 1.0 Sn
Sn18 1.0000000000 0.0000000000 0.3134097531 0.1575352973  Biso 1.0 Sn
Sn19 1.0000000000 0.0000000000 0.6865902469 0.8424647027  Biso 1.0 Sn
Sn20 1.0000000000 0.0000000000 0.3134097531 0.8424647027  Biso 1.0 Sn
Sn21 1.0000000000 0.8424647027 0.0000000000 0.3134097531  Biso 1.0 Sn
Sn22 1.0000000000 0.8424647027 0.0000000000 0.6865902469  Biso 1.0 Sn
Sn23 1.0000000000 0.1575352973 0.0000000000 0.3134097531  Biso 1.0 Sn
Sn24 1.0000000000 0.1575352973 0.0000000000 0.6865902469  Biso 1.0 Sn
Sn25 1.0000000000 0.6865902469 0.8424647027 0.0000000000  Biso 1.0 Sn
Sn26 1.0000000000 0.3134097531 0.8424647027 0.0000000000  Biso 1.0 Sn
Sn27 1.0000000000 0.6865902469 0.1575352973 0.0000000000  Biso 1.0 Sn
Sn28 1.0000000000 0.3134097531 0.1575352973 0.0000000000  Biso 1.0 Sn
Sn29 1.0000000000 0.1865902469 0.5000000000 0.3424647027  Biso 1.0 Sn
Sn30 1.0000000000 0.8134097531 0.5000000000 0.3424647027  Biso 1.0 Sn
Sn31 1.0000000000 0.1865902469 0.5000000000 0.6575352973  Biso 1.0 Sn
Sn32 1.0000000000 0.8134097531 0.5000000000 0.6575352973  Biso 1.0 Sn
Sn33 1.0000000000 0.5000000000 0.3424647027 0.1865902469  Biso 1.0 Sn
Sn34 1.0000000000 0.5000000000 0.3424647027 0.8134097531  Biso 1.0 Sn
Sn35 1.0000000000 0.5000000000 0.6575352973 0.1865902469  Biso 1.0 Sn
Sn36 1.0000000000 0.5000000000 0.6575352973 0.8134097531  Biso 1.0 Sn
Sn37 1.0000000000 0.3424647027 0.1865902469 0.5000000000  Biso 1.0 Sn
Sn38 1.0000000000 0.3424647027 0.8134097531 0.5000000000  Biso 1.0 Sn
Sn39 1.0000000000 0.6575352973 0.1865902469 0.5000000000  Biso 1.0 Sn
Sn40 1.0000000000 0.6575352973 0.8134097531 0.5000000000  Biso 1.0 Sn
