# AFLOW.org Repositories
# La2Sb1   [BCT,BCT2,tI12] (STD_PRIM doi:1
data_La2Sb1
_pd_phase_name La2Sb1
_cell_length_a  9.7430189395
_cell_length_b  9.7430189395
_cell_length_c  9.7430189395
_cell_angle_alpha  152.0695650011
_cell_angle_beta  152.0695650011
_cell_angle_gamma  39.9117231170
_symmetry_space_group_name_H-M  'P1'
_symmetry_Int_Tables_Number  1
loop_
_symmetry_equiv_pos_site_id
_symmetry_equiv_pos_as_xyz
  1  x,y,z
loop_
 _atom_site_label
 _atom_site_occupancy
 _atom_site_fract_x
 _atom_site_fract_y
 _atom_site_fract_z
 _atom_site_thermal_displace_type
 _atom_site_B_iso_or_equiv
 _atom_site_type_symbol
La1 1.0000000000 0.5000000000 0.0000000000 0.5000000000  Biso 1.0 La
La2 1.0000000000 0.0000000000 0.5000000000 0.5000000000  Biso 1.0 La
La3 1.0000000000 0.6797314637 0.6797314637 0.0000000000  Biso 1.0 La
La4 1.0000000000 0.3202685363 0.3202685363 0.0000000000  Biso 1.0 La
Sb5 1.0000000000 0.8621158206 0.8621158206 0.0000000000  Biso 1.0 Sb
Sb6 1.0000000000 0.1378841794 0.1378841794 0.0000000000  Biso 1.0 Sb
