# AFLOW.org Repositories
# La3O7Ta1   [ORCC,ORCC,oS22] (STD_PRIM do
data_La3O7Ta1
_pd_phase_name La3O7Ta1
_cell_length_a  6.8752203477
_cell_length_b  6.8752203477
_cell_length_c  3.9919068189
_cell_angle_alpha  90.0000000000
_cell_angle_beta  90.0000000000
_cell_angle_gamma  110.4074276309
_symmetry_space_group_name_H-M  'P1'
_symmetry_Int_Tables_Number  1
loop_
_symmetry_equiv_pos_site_id
_symmetry_equiv_pos_as_xyz
  1  x,y,z
loop_
 _atom_site_label
 _atom_site_occupancy
 _atom_site_fract_x
 _atom_site_fract_y
 _atom_site_fract_z
 _atom_site_thermal_displace_type
 _atom_site_B_iso_or_equiv
 _atom_site_type_symbol
La1 1.0000000000 0.0000000000 0.0000000000 0.0000000000  Biso 1.0 La
La2 1.0000000000 0.0000000000 0.5000000000 0.5000000000  Biso 1.0 La
La3 1.0000000000 0.5000000000 0.0000000000 0.5000000000  Biso 1.0 La
O4 1.0000000000 0.5000000000 0.5000000000 0.5000000000  Biso 1.0 O
O5 1.0000000000 0.1880111406 0.4339960433 0.0000000000  Biso 1.0 O
O6 1.0000000000 0.8119888594 0.5660039567 0.0000000000  Biso 1.0 O
O7 1.0000000000 0.4339960433 0.1880111406 0.0000000000  Biso 1.0 O
O8 1.0000000000 0.5660039567 0.8119888594 0.0000000000  Biso 1.0 O
O9 1.0000000000 0.8694346544 0.1305653456 0.5000000000  Biso 1.0 O
O10 1.0000000000 0.1305653456 0.8694346544 0.5000000000  Biso 1.0 O
Ta11 1.0000000000 0.5000000000 0.5000000000 0.0000000000  Biso 1.0 Ta
