# AFLOW.org Repositories
# La3Sb5Zr1   [HEX,HEX,hP18] (STD_PRIM doi
data_La3Sb5Zr1
_pd_phase_name La3Sb5Zr1
_cell_length_a  9.7160538269
_cell_length_b  9.7160538269
_cell_length_c  6.4146944854
_cell_angle_alpha  90.0000000000
_cell_angle_beta  90.0000000000
_cell_angle_gamma  120.0000000000
_symmetry_space_group_name_H-M  'P1'
_symmetry_Int_Tables_Number  1
loop_
_symmetry_equiv_pos_site_id
_symmetry_equiv_pos_as_xyz
  1  x,y,z
loop_
 _atom_site_label
 _atom_site_occupancy
 _atom_site_fract_x
 _atom_site_fract_y
 _atom_site_fract_z
 _atom_site_thermal_displace_type
 _atom_site_B_iso_or_equiv
 _atom_site_type_symbol
La1 1.0000000000 0.0000000000 0.3817809324 0.2500000000  Biso 1.0 La
La2 1.0000000000 0.6182190676 0.6182190676 0.2500000000  Biso 1.0 La
La3 1.0000000000 0.3818010170 0.0000000000 0.2500000000  Biso 1.0 La
La4 1.0000000000 0.0000000000 0.6182190676 0.7500000000  Biso 1.0 La
La5 1.0000000000 0.3817809324 0.3817809324 0.7500000000  Biso 1.0 La
La6 1.0000000000 0.6181989830 0.0000000000 0.7500000000  Biso 1.0 La
Sb7 1.0000000000 0.0000000000 0.7405262961 0.2500000000  Biso 1.0 Sb
Sb8 1.0000000000 0.2594737039 0.2594737039 0.2500000000  Biso 1.0 Sb
Sb9 1.0000000000 0.7405194155 0.0000000000 0.2500000000  Biso 1.0 Sb
Sb10 1.0000000000 0.0000000000 0.2594737039 0.7500000000  Biso 1.0 Sb
Sb11 1.0000000000 0.7405262961 0.7405262961 0.7500000000  Biso 1.0 Sb
Sb12 1.0000000000 0.2594805845 0.0000000000 0.7500000000  Biso 1.0 Sb
Sb13 1.0000000000 0.6666759259 0.3333518517 0.0000000000  Biso 1.0 Sb
Sb14 1.0000000000 0.3333240741 0.6666481483 0.5000000000  Biso 1.0 Sb
Sb15 1.0000000000 0.3333240741 0.6666481483 0.0000000000  Biso 1.0 Sb
Sb16 1.0000000000 0.6666759259 0.3333518517 0.5000000000  Biso 1.0 Sb
Zr17 1.0000000000 0.0000000000 0.0000000000 0.0000000000  Biso 1.0 Zr
Zr18 1.0000000000 0.0000000000 0.0000000000 0.5000000000  Biso 1.0 Zr
