# AFLOW.org Repositories
# La3Sn7   [ORCC,ORCC,oS20] (STD_PRIM doi:
data_La3Sn7
_pd_phase_name La3Sn7
_cell_length_a  13.5837316065
_cell_length_b  13.5837316065
_cell_length_c  4.7698603096
_cell_angle_alpha  90.0000000000
_cell_angle_beta  90.0000000000
_cell_angle_gamma  160.1662620340
_symmetry_space_group_name_H-M  'P1'
_symmetry_Int_Tables_Number  1
loop_
_symmetry_equiv_pos_site_id
_symmetry_equiv_pos_as_xyz
  1  x,y,z
loop_
 _atom_site_label
 _atom_site_occupancy
 _atom_site_fract_x
 _atom_site_fract_y
 _atom_site_fract_z
 _atom_site_thermal_displace_type
 _atom_site_B_iso_or_equiv
 _atom_site_type_symbol
La1 1.0000000000 0.8148263045 0.1851736955 0.0000000000  Biso 1.0 La
La2 1.0000000000 0.1851736955 0.8148263045 0.0000000000  Biso 1.0 La
La3 1.0000000000 0.0000000000 0.0000000000 0.0000000000  Biso 1.0 La
Sn4 1.0000000000 0.7112021769 0.2887978231 0.5000000000  Biso 1.0 Sn
Sn5 1.0000000000 0.2887978231 0.7112021769 0.5000000000  Biso 1.0 Sn
Sn6 1.0000000000 0.5949051023 0.4050948977 0.0000000000  Biso 1.0 Sn
Sn7 1.0000000000 0.4050948977 0.5949051023 0.0000000000  Biso 1.0 Sn
Sn8 1.0000000000 0.9044834467 0.0955165533 0.5000000000  Biso 1.0 Sn
Sn9 1.0000000000 0.0955165533 0.9044834467 0.5000000000  Biso 1.0 Sn
Sn10 1.0000000000 0.5000000000 0.5000000000 0.5000000000  Biso 1.0 Sn
