# AFLOW.org Repositories
# Li2O5Si2   [ORCC,ORCC,oS36] (STD_PRIM do
data_Li2O5Si2
_pd_phase_name Li2O5Si2
_cell_length_a  7.9732218613
_cell_length_b  7.9732218613
_cell_length_c  4.8468388861
_cell_angle_alpha  90.0000000000
_cell_angle_beta  90.0000000000
_cell_angle_gamma  136.6413002685
_symmetry_space_group_name_H-M  'P1'
_symmetry_Int_Tables_Number  1
loop_
_symmetry_equiv_pos_site_id
_symmetry_equiv_pos_as_xyz
  1  x,y,z
loop_
 _atom_site_label
 _atom_site_occupancy
 _atom_site_fract_x
 _atom_site_fract_y
 _atom_site_fract_z
 _atom_site_thermal_displace_type
 _atom_site_B_iso_or_equiv
 _atom_site_type_symbol
Li1 1.0000000000 0.5949760596 0.7111056028 0.3617171941  Biso 1.0 Li
Li2 1.0000000000 0.4050239404 0.2888943972 0.3617171941  Biso 1.0 Li
Li3 1.0000000000 0.7111056028 0.5949760596 0.8617171941  Biso 1.0 Li
Li4 1.0000000000 0.2888943972 0.4050239404 0.8617171941  Biso 1.0 Li
O5 1.0000000000 0.5981383269 0.7418360199 0.9564421172  Biso 1.0 O
O6 1.0000000000 0.4018616731 0.2581639801 0.9564421172  Biso 1.0 O
O7 1.0000000000 0.7418360199 0.5981383269 0.4564421172  Biso 1.0 O
O8 1.0000000000 0.2581639801 0.4018616731 0.4564421172  Biso 1.0 O
O9 1.0000000000 0.7696636857 0.0457422364 0.5303703059  Biso 1.0 O
O10 1.0000000000 0.2303363143 0.9542577636 0.5303703059  Biso 1.0 O
O11 1.0000000000 0.0457422364 0.7696636857 0.0303703059  Biso 1.0 O
O12 1.0000000000 0.9542577636 0.2303363143 0.0303703059  Biso 1.0 O
O13 1.0000000000 0.5000000000 0.0000000000 0.9208150608  Biso 1.0 O
O14 1.0000000000 0.0000000000 0.5000000000 0.4208150608  Biso 1.0 O
Si15 1.0000000000 0.6963503466 0.9931671328 0.8642128525  Biso 1.0 Si
Si16 1.0000000000 0.3036496534 0.0068328672 0.8642128525  Biso 1.0 Si
Si17 1.0000000000 0.9931671328 0.6963503466 0.3642128525  Biso 1.0 Si
Si18 1.0000000000 0.0068328672 0.3036496534 0.3642128525  Biso 1.0 Si
