# AFLOW.org Repositories
# Li2Pd1   [HEX,HEX,hP3] (STD_PRIM doi:10.
data_Li2Pd1
_pd_phase_name Li2Pd1
_cell_length_a  4.2186992663
_cell_length_b  4.2186992663
_cell_length_c  2.7296476634
_cell_angle_alpha  90.0000000000
_cell_angle_beta  90.0000000000
_cell_angle_gamma  120.0000000000
_symmetry_space_group_name_H-M  'P1'
_symmetry_Int_Tables_Number  1
loop_
_symmetry_equiv_pos_site_id
_symmetry_equiv_pos_as_xyz
  1  x,y,z
loop_
 _atom_site_label
 _atom_site_occupancy
 _atom_site_fract_x
 _atom_site_fract_y
 _atom_site_fract_z
 _atom_site_thermal_displace_type
 _atom_site_B_iso_or_equiv
 _atom_site_type_symbol
Li1 1.0000000000 0.3333834200 0.6666917100 0.5000000000  Biso 1.0 Li
Li2 1.0000000000 0.6666165800 0.3333082900 0.5000000000  Biso 1.0 Li
Pd3 1.0000000000 0.0000000000 0.0000000000 0.0000000000  Biso 1.0 Pd
