# AFLOW.org Repositories
# Li3O4U1   [BCT,BCT2,tI16] (STD_PRIM doi:
data_Li3O4U1
_pd_phase_name Li3O4U1
_cell_length_a  5.3328312749
_cell_length_b  5.3328312749
_cell_length_c  5.3328312749
_cell_angle_alpha  129.6803883398
_cell_angle_beta  129.6803883398
_cell_angle_gamma  73.9182357908
_symmetry_space_group_name_H-M  'P1'
_symmetry_Int_Tables_Number  1
loop_
_symmetry_equiv_pos_site_id
_symmetry_equiv_pos_as_xyz
  1  x,y,z
loop_
 _atom_site_label
 _atom_site_occupancy
 _atom_site_fract_x
 _atom_site_fract_y
 _atom_site_fract_z
 _atom_site_thermal_displace_type
 _atom_site_B_iso_or_equiv
 _atom_site_type_symbol
Li1 1.0000000000 0.5000000000 0.5000000000 0.0000000000  Biso 1.0 Li
Li2 1.0000000000 0.2500000000 0.7500000000 0.5000000000  Biso 1.0 Li
Li3 1.0000000000 0.7500000000 0.2500000000 0.5000000000  Biso 1.0 Li
O4 1.0000000000 0.0000000000 0.5000000000 0.5000000000  Biso 1.0 O
O5 1.0000000000 0.5000000000 0.0000000000 0.5000000000  Biso 1.0 O
O6 1.0000000000 0.2397247109 0.2397247109 0.0000000000  Biso 1.0 O
O7 1.0000000000 0.7602752891 0.7602752891 0.0000000000  Biso 1.0 O
U8 1.0000000000 0.0000000000 0.0000000000 0.0000000000  Biso 1.0 U
