# AFLOW.org Repositories
# Mg1O3Si1   [ORCC,ORCC,oS20] (STD_PRIM do
data_Mg1O3Si1
_pd_phase_name Mg1O3Si1
_cell_length_a  4.7927245987
_cell_length_b  4.7927245987
_cell_length_c  6.7318014226
_cell_angle_alpha  90.0000000000
_cell_angle_beta  90.0000000000
_cell_angle_gamma  147.1066676862
_symmetry_space_group_name_H-M  'P1'
_symmetry_Int_Tables_Number  1
loop_
_symmetry_equiv_pos_site_id
_symmetry_equiv_pos_as_xyz
  1  x,y,z
loop_
 _atom_site_label
 _atom_site_occupancy
 _atom_site_fract_x
 _atom_site_fract_y
 _atom_site_fract_z
 _atom_site_thermal_displace_type
 _atom_site_B_iso_or_equiv
 _atom_site_type_symbol
Mg1 1.0000000000 0.7406413403 0.2593586597 0.2500000000  Biso 1.0 Mg
Mg2 1.0000000000 0.2593586597 0.7406413403 0.7500000000  Biso 1.0 Mg
O3 1.0000000000 0.0733647413 0.9266352587 0.2500000000  Biso 1.0 O
O4 1.0000000000 0.9266352587 0.0733647413 0.7500000000  Biso 1.0 O
O5 1.0000000000 0.3737339704 0.6262660296 0.4442016313  Biso 1.0 O
O6 1.0000000000 0.6262660296 0.3737339704 0.9442016313  Biso 1.0 O
O7 1.0000000000 0.3737339704 0.6262660296 0.0557983687  Biso 1.0 O
O8 1.0000000000 0.6262660296 0.3737339704 0.5557983687  Biso 1.0 O
Si9 1.0000000000 0.0000000000 0.0000000000 0.0000000000  Biso 1.0 Si
Si10 1.0000000000 0.0000000000 0.0000000000 0.5000000000  Biso 1.0 Si
