# AFLOW.org Repositories
# Mg1Se4Y2   [FCC,FCC,cF56] (STD_PRIM doi:
data_Mg1Se4Y2
_pd_phase_name Mg1Se4Y2
_cell_length_a  8.2729145790
_cell_length_b  8.2729145790
_cell_length_c  8.2729145790
_cell_angle_alpha  60.0000000000
_cell_angle_beta  60.0000000000
_cell_angle_gamma  60.0000000000
_symmetry_space_group_name_H-M  'P1'
_symmetry_Int_Tables_Number  1
loop_
_symmetry_equiv_pos_site_id
_symmetry_equiv_pos_as_xyz
  1  x,y,z
loop_
 _atom_site_label
 _atom_site_occupancy
 _atom_site_fract_x
 _atom_site_fract_y
 _atom_site_fract_z
 _atom_site_thermal_displace_type
 _atom_site_B_iso_or_equiv
 _atom_site_type_symbol
Mg1 1.0000000000 0.0000000000 0.0000000000 0.0000000000  Biso 1.0 Mg
Mg2 1.0000000000 0.7500000000 0.7500000000 0.7500000000  Biso 1.0 Mg
Se3 1.0000000000 0.6204789181 0.6204789181 0.6204789181  Biso 1.0 Se
Se4 1.0000000000 0.6204789181 0.6204789181 0.1385632458  Biso 1.0 Se
Se5 1.0000000000 0.1385632458 0.6204789181 0.6204789181  Biso 1.0 Se
Se6 1.0000000000 0.6204789181 0.1385632458 0.6204789181  Biso 1.0 Se
Se7 1.0000000000 0.1295210819 0.1295210819 0.6114367542  Biso 1.0 Se
Se8 1.0000000000 0.1295210819 0.1295210819 0.1295210819  Biso 1.0 Se
Se9 1.0000000000 0.6114367542 0.1295210819 0.1295210819  Biso 1.0 Se
Se10 1.0000000000 0.1295210819 0.6114367542 0.1295210819  Biso 1.0 Se
Y11 1.0000000000 0.3750000000 0.3750000000 0.3750000000  Biso 1.0 Y
Y12 1.0000000000 0.3750000000 0.3750000000 0.8750000000  Biso 1.0 Y
Y13 1.0000000000 0.8750000000 0.3750000000 0.3750000000  Biso 1.0 Y
Y14 1.0000000000 0.3750000000 0.8750000000 0.3750000000  Biso 1.0 Y
