# AFLOW.org Repositories
# Mg1Tb2   [BCT,BCT2,tI6] (STD_PRIM doi:10
data_Mg1Tb2
_pd_phase_name Mg1Tb2
_cell_length_a  6.9102450544
_cell_length_b  6.9102450544
_cell_length_c  6.9102450544
_cell_angle_alpha  148.9567460862
_cell_angle_beta  148.9567460862
_cell_angle_gamma  44.4749775946
_symmetry_space_group_name_H-M  'P1'
_symmetry_Int_Tables_Number  1
loop_
_symmetry_equiv_pos_site_id
_symmetry_equiv_pos_as_xyz
  1  x,y,z
loop_
 _atom_site_label
 _atom_site_occupancy
 _atom_site_fract_x
 _atom_site_fract_y
 _atom_site_fract_z
 _atom_site_thermal_displace_type
 _atom_site_B_iso_or_equiv
 _atom_site_type_symbol
Mg1 1.0000000000 0.0000000000 0.0000000000 0.0000000000  Biso 1.0 Mg
Tb2 1.0000000000 0.6580203498 0.6580203498 0.0000000000  Biso 1.0 Tb
Tb3 1.0000000000 0.3419796502 0.3419796502 0.0000000000  Biso 1.0 Tb
