# AFLOW.org Repositories
# Mg2Tb1   [HEX,HEX,hP12] (STD_PRIM doi:10
data_Mg2Tb1
_pd_phase_name Mg2Tb1
_cell_length_a  6.0631147330
_cell_length_b  6.0631147330
_cell_length_c  9.8000619245
_cell_angle_alpha  90.0000000000
_cell_angle_beta  90.0000000000
_cell_angle_gamma  120.0000000000
_symmetry_space_group_name_H-M  'P1'
_symmetry_Int_Tables_Number  1
loop_
_symmetry_equiv_pos_site_id
_symmetry_equiv_pos_as_xyz
  1  x,y,z
loop_
 _atom_site_label
 _atom_site_occupancy
 _atom_site_fract_x
 _atom_site_fract_y
 _atom_site_fract_z
 _atom_site_thermal_displace_type
 _atom_site_B_iso_or_equiv
 _atom_site_type_symbol
Mg1 1.0000000000 0.0000000000 0.0000000000 0.0000000000  Biso 1.0 Mg
Mg2 1.0000000000 0.0000000000 0.0000000000 0.5000000000  Biso 1.0 Mg
Mg3 1.0000000000 0.8291178915 0.1709078024 0.2500000000  Biso 1.0 Mg
Mg4 1.0000000000 0.8291178915 0.6582100891 0.2500000000  Biso 1.0 Mg
Mg5 1.0000000000 0.3417835905 0.1708917953 0.2500000000  Biso 1.0 Mg
Mg6 1.0000000000 0.1708821085 0.8290921976 0.7500000000  Biso 1.0 Mg
Mg7 1.0000000000 0.1708821085 0.3417899109 0.7500000000  Biso 1.0 Mg
Mg8 1.0000000000 0.6582164095 0.8291082047 0.7500000000  Biso 1.0 Mg
Tb9 1.0000000000 0.3333736527 0.6666868263 0.0637619960  Biso 1.0 Tb
Tb10 1.0000000000 0.6666263473 0.3333131737 0.5637619960  Biso 1.0 Tb
Tb11 1.0000000000 0.6666263473 0.3333131737 0.9362380040  Biso 1.0 Tb
Tb12 1.0000000000 0.3333736527 0.6666868263 0.4362380040  Biso 1.0 Tb
