# AFLOW.org Repositories
# Mg3N2   [BCC,BCC,cI80] (STD_PRIM doi:10.
data_Mg3N2
_pd_phase_name Mg3N2
_cell_length_a  8.6810314779
_cell_length_b  8.6810314779
_cell_length_c  8.6810314779
_cell_angle_alpha  109.4712206345
_cell_angle_beta  109.4712206345
_cell_angle_gamma  109.4712206345
_symmetry_space_group_name_H-M  'P1'
_symmetry_Int_Tables_Number  1
loop_
_symmetry_equiv_pos_site_id
_symmetry_equiv_pos_as_xyz
  1  x,y,z
loop_
 _atom_site_label
 _atom_site_occupancy
 _atom_site_fract_x
 _atom_site_fract_y
 _atom_site_fract_z
 _atom_site_thermal_displace_type
 _atom_site_B_iso_or_equiv
 _atom_site_type_symbol
Mg1 1.0000000000 0.2284937692 0.4650681764 0.4582073353  Biso 1.0 Mg
Mg2 1.0000000000 0.0068608411 0.2702864339 0.0417926647  Biso 1.0 Mg
Mg3 1.0000000000 0.2715062308 0.2297135661 0.7365744072  Biso 1.0 Mg
Mg4 1.0000000000 0.4931391589 0.0349318236 0.7634255928  Biso 1.0 Mg
Mg5 1.0000000000 0.4650681764 0.4582073353 0.2284937692  Biso 1.0 Mg
Mg6 1.0000000000 0.2702864339 0.0417926647 0.0068608411  Biso 1.0 Mg
Mg7 1.0000000000 0.2297135661 0.7365744072 0.2715062308  Biso 1.0 Mg
Mg8 1.0000000000 0.0349318236 0.7634255928 0.4931391589  Biso 1.0 Mg
Mg9 1.0000000000 0.4582073353 0.2284937692 0.4650681764  Biso 1.0 Mg
Mg10 1.0000000000 0.0417926647 0.0068608411 0.2702864339  Biso 1.0 Mg
Mg11 1.0000000000 0.7365744072 0.2715062308 0.2297135661  Biso 1.0 Mg
Mg12 1.0000000000 0.7634255928 0.4931391589 0.0349318236  Biso 1.0 Mg
Mg13 1.0000000000 0.7715062308 0.5349318236 0.5417926647  Biso 1.0 Mg
Mg14 1.0000000000 0.9931391589 0.7297135661 0.9582073353  Biso 1.0 Mg
Mg15 1.0000000000 0.7284937692 0.7702864339 0.2634255928  Biso 1.0 Mg
Mg16 1.0000000000 0.5068608411 0.9650681764 0.2365744072  Biso 1.0 Mg
Mg17 1.0000000000 0.5349318236 0.5417926647 0.7715062308  Biso 1.0 Mg
Mg18 1.0000000000 0.7297135661 0.9582073353 0.9931391589  Biso 1.0 Mg
Mg19 1.0000000000 0.7702864339 0.2634255928 0.7284937692  Biso 1.0 Mg
Mg20 1.0000000000 0.9650681764 0.2365744072 0.5068608411  Biso 1.0 Mg
Mg21 1.0000000000 0.5417926647 0.7715062308 0.5349318236  Biso 1.0 Mg
Mg22 1.0000000000 0.9582073353 0.9931391589 0.7297135661  Biso 1.0 Mg
Mg23 1.0000000000 0.2634255928 0.7284937692 0.7702864339  Biso 1.0 Mg
Mg24 1.0000000000 0.2365744072 0.5068608411 0.9650681764  Biso 1.0 Mg
N25 1.0000000000 0.5000000000 0.5000000000 0.5000000000  Biso 1.0 N
N26 1.0000000000 0.0000000000 0.5000000000 0.0000000000  Biso 1.0 N
N27 1.0000000000 0.0000000000 0.0000000000 0.5000000000  Biso 1.0 N
N28 1.0000000000 0.5000000000 0.0000000000 0.0000000000  Biso 1.0 N
N29 1.0000000000 0.7811026191 0.7500000000 0.0311026191  Biso 1.0 N
N30 1.0000000000 0.7188973809 0.2500000000 0.4688973809  Biso 1.0 N
N31 1.0000000000 0.7500000000 0.0311026191 0.7811026191  Biso 1.0 N
N32 1.0000000000 0.2500000000 0.4688973809 0.7188973809  Biso 1.0 N
N33 1.0000000000 0.0311026191 0.7811026191 0.7500000000  Biso 1.0 N
N34 1.0000000000 0.4688973809 0.7188973809 0.2500000000  Biso 1.0 N
N35 1.0000000000 0.2188973809 0.2500000000 0.9688973809  Biso 1.0 N
N36 1.0000000000 0.2811026191 0.7500000000 0.5311026191  Biso 1.0 N
N37 1.0000000000 0.2500000000 0.9688973809 0.2188973809  Biso 1.0 N
N38 1.0000000000 0.7500000000 0.5311026191 0.2811026191  Biso 1.0 N
N39 1.0000000000 0.9688973809 0.2188973809 0.2500000000  Biso 1.0 N
N40 1.0000000000 0.5311026191 0.2811026191 0.7500000000  Biso 1.0 N
