# AFLOW.org Repositories
# Mg6Mn1O8   [FCC,FCC,cF60] (STD_PRIM doi:
data_Mg6Mn1O8
_pd_phase_name Mg6Mn1O8
_cell_length_a  5.9951773901
_cell_length_b  5.9951773901
_cell_length_c  5.9951773901
_cell_angle_alpha  60.0000000000
_cell_angle_beta  60.0000000000
_cell_angle_gamma  60.0000000000
_symmetry_space_group_name_H-M  'P1'
_symmetry_Int_Tables_Number  1
loop_
_symmetry_equiv_pos_site_id
_symmetry_equiv_pos_as_xyz
  1  x,y,z
loop_
 _atom_site_label
 _atom_site_occupancy
 _atom_site_fract_x
 _atom_site_fract_y
 _atom_site_fract_z
 _atom_site_thermal_displace_type
 _atom_site_B_iso_or_equiv
 _atom_site_type_symbol
Mg1 1.0000000000 0.5000000000 0.0000000000 0.0000000000  Biso 1.0 Mg
Mg2 1.0000000000 0.0000000000 0.5000000000 0.5000000000  Biso 1.0 Mg
Mg3 1.0000000000 0.5000000000 0.5000000000 0.0000000000  Biso 1.0 Mg
Mg4 1.0000000000 0.0000000000 0.0000000000 0.5000000000  Biso 1.0 Mg
Mg5 1.0000000000 0.5000000000 0.0000000000 0.5000000000  Biso 1.0 Mg
Mg6 1.0000000000 0.0000000000 0.5000000000 0.0000000000  Biso 1.0 Mg
Mn7 1.0000000000 0.0000000000 0.0000000000 0.0000000000  Biso 1.0 Mn
O8 1.0000000000 0.7500000000 0.7500000000 0.7500000000  Biso 1.0 O
O9 1.0000000000 0.2500000000 0.2500000000 0.2500000000  Biso 1.0 O
O10 1.0000000000 0.2295139544 0.7704860456 0.7704860456  Biso 1.0 O
O11 1.0000000000 0.7704860456 0.2295139544 0.2295139544  Biso 1.0 O
O12 1.0000000000 0.2295139544 0.2295139544 0.7704860456  Biso 1.0 O
O13 1.0000000000 0.7704860456 0.7704860456 0.2295139544  Biso 1.0 O
O14 1.0000000000 0.2295139544 0.7704860456 0.2295139544  Biso 1.0 O
O15 1.0000000000 0.7704860456 0.2295139544 0.7704860456  Biso 1.0 O
