# AFLOW.org Repositories
# Mn1Si1Tb1   [ORC,ORC,oP12] (STD_PRIM doi
data_Mn1Si1Tb1
_pd_phase_name Mn1Si1Tb1
_cell_length_a  4.3853012537
_cell_length_b  6.5785576038
_cell_length_c  7.2699462522
_cell_angle_alpha  90.0000000000
_cell_angle_beta  90.0000000000
_cell_angle_gamma  90.0000000000
_symmetry_space_group_name_H-M  'P1'
_symmetry_Int_Tables_Number  1
loop_
_symmetry_equiv_pos_site_id
_symmetry_equiv_pos_as_xyz
  1  x,y,z
loop_
 _atom_site_label
 _atom_site_occupancy
 _atom_site_fract_x
 _atom_site_fract_y
 _atom_site_fract_z
 _atom_site_thermal_displace_type
 _atom_site_B_iso_or_equiv
 _atom_site_type_symbol
Mn1 1.0000000000 0.7500000000 0.4267066965 0.1411873731  Biso 1.0 Mn
Mn2 1.0000000000 0.2500000000 0.9267066965 0.3588126269  Biso 1.0 Mn
Mn3 1.0000000000 0.2500000000 0.5732933035 0.8588126269  Biso 1.0 Mn
Mn4 1.0000000000 0.7500000000 0.0732933035 0.6411873731  Biso 1.0 Mn
Si5 1.0000000000 0.7500000000 0.3942183003 0.8112003316  Biso 1.0 Si
Si6 1.0000000000 0.2500000000 0.8942183003 0.6887996684  Biso 1.0 Si
Si7 1.0000000000 0.2500000000 0.6057816997 0.1887996684  Biso 1.0 Si
Si8 1.0000000000 0.7500000000 0.1057816997 0.3112003316  Biso 1.0 Si
Tb9 1.0000000000 0.7500000000 0.6828716701 0.4771117856  Biso 1.0 Tb
Tb10 1.0000000000 0.2500000000 0.1828716701 0.0228882144  Biso 1.0 Tb
Tb11 1.0000000000 0.2500000000 0.3171283299 0.5228882144  Biso 1.0 Tb
Tb12 1.0000000000 0.7500000000 0.8171283299 0.9771117856  Biso 1.0 Tb
