# AFLOW.org Repositories
# Mn1Sc2Se4   [FCC,FCC,cF56] (STD_PRIM doi
data_Mn1Sc2Se4
_pd_phase_name Mn1Sc2Se4
_cell_length_a  8.0032069114
_cell_length_b  8.0032069114
_cell_length_c  8.0032069114
_cell_angle_alpha  60.0000000000
_cell_angle_beta  60.0000000000
_cell_angle_gamma  60.0000000000
_symmetry_space_group_name_H-M  'P1'
_symmetry_Int_Tables_Number  1
loop_
_symmetry_equiv_pos_site_id
_symmetry_equiv_pos_as_xyz
  1  x,y,z
loop_
 _atom_site_label
 _atom_site_occupancy
 _atom_site_fract_x
 _atom_site_fract_y
 _atom_site_fract_z
 _atom_site_thermal_displace_type
 _atom_site_B_iso_or_equiv
 _atom_site_type_symbol
Mn1 1.0000000000 0.0000000000 0.0000000000 0.0000000000  Biso 1.0 Mn
Mn2 1.0000000000 0.2500000000 0.2500000000 0.2500000000  Biso 1.0 Mn
Sc3 1.0000000000 0.6250000000 0.6250000000 0.6250000000  Biso 1.0 Sc
Sc4 1.0000000000 0.6250000000 0.1250000000 0.6250000000  Biso 1.0 Sc
Sc5 1.0000000000 0.1250000000 0.6250000000 0.6250000000  Biso 1.0 Sc
Sc6 1.0000000000 0.6250000000 0.6250000000 0.1250000000  Biso 1.0 Sc
Se7 1.0000000000 0.3822314586 0.3822314586 0.3822314586  Biso 1.0 Se
Se8 1.0000000000 0.3822314586 0.8533056243 0.3822314586  Biso 1.0 Se
Se9 1.0000000000 0.8533056243 0.3822314586 0.3822314586  Biso 1.0 Se
Se10 1.0000000000 0.3822314586 0.3822314586 0.8533056243  Biso 1.0 Se
Se11 1.0000000000 0.8677685414 0.3966943757 0.8677685414  Biso 1.0 Se
Se12 1.0000000000 0.8677685414 0.8677685414 0.8677685414  Biso 1.0 Se
Se13 1.0000000000 0.3966943757 0.8677685414 0.8677685414  Biso 1.0 Se
Se14 1.0000000000 0.8677685414 0.8677685414 0.3966943757  Biso 1.0 Se
