# AFLOW.org Repositories
# Mn2Te4Zn1   [FCC,FCC,cF56] (STD_PRIM doi
data_Mn2Te4Zn1
_pd_phase_name Mn2Te4Zn1
_cell_length_a  8.2854115344
_cell_length_b  8.2854115344
_cell_length_c  8.2854115344
_cell_angle_alpha  60.0000000000
_cell_angle_beta  60.0000000000
_cell_angle_gamma  60.0000000000
_symmetry_space_group_name_H-M  'P1'
_symmetry_Int_Tables_Number  1
loop_
_symmetry_equiv_pos_site_id
_symmetry_equiv_pos_as_xyz
  1  x,y,z
loop_
 _atom_site_label
 _atom_site_occupancy
 _atom_site_fract_x
 _atom_site_fract_y
 _atom_site_fract_z
 _atom_site_thermal_displace_type
 _atom_site_B_iso_or_equiv
 _atom_site_type_symbol
Mn1 1.0000000000 0.0000000000 0.0000000000 0.0000000000  Biso 1.0 Mn
Mn2 1.0000000000 0.0000000000 0.5000000000 0.0000000000  Biso 1.0 Mn
Mn3 1.0000000000 0.0000000000 0.5000000000 0.5000000000  Biso 1.0 Mn
Mn4 1.0000000000 0.5000000000 0.5000000000 0.0000000000  Biso 1.0 Mn
Te5 1.0000000000 0.2440976425 0.2677070725 0.2440976425  Biso 1.0 Te
Te6 1.0000000000 0.2440976425 0.7440976425 0.2440976425  Biso 1.0 Te
Te7 1.0000000000 0.2440976425 0.7440976425 0.7677070725  Biso 1.0 Te
Te8 1.0000000000 0.7677070725 0.7440976425 0.2440976425  Biso 1.0 Te
Te9 1.0000000000 0.7559023575 0.2559023575 0.7559023575  Biso 1.0 Te
Te10 1.0000000000 0.7559023575 0.7322929275 0.7559023575  Biso 1.0 Te
Te11 1.0000000000 0.7559023575 0.2559023575 0.2322929275  Biso 1.0 Te
Te12 1.0000000000 0.2322929275 0.2559023575 0.7559023575  Biso 1.0 Te
Zn13 1.0000000000 0.3750000000 0.8750000000 0.3750000000  Biso 1.0 Zn
Zn14 1.0000000000 0.6250000000 0.1250000000 0.6250000000  Biso 1.0 Zn
