# AFLOW.org Repositories
# Mo3N1Ni2   [CUB,CUB,cP24] (STD_PRIM doi:
data_Mo3N1Ni2
_pd_phase_name Mo3N1Ni2
_cell_length_a  6.6693070796
_cell_length_b  6.6693070796
_cell_length_c  6.6693070796
_cell_angle_alpha  90.0000000000
_cell_angle_beta  90.0000000000
_cell_angle_gamma  90.0000000000
_symmetry_space_group_name_H-M  'P1'
_symmetry_Int_Tables_Number  1
loop_
_symmetry_equiv_pos_site_id
_symmetry_equiv_pos_as_xyz
  1  x,y,z
loop_
 _atom_site_label
 _atom_site_occupancy
 _atom_site_fract_x
 _atom_site_fract_y
 _atom_site_fract_z
 _atom_site_thermal_displace_type
 _atom_site_B_iso_or_equiv
 _atom_site_type_symbol
Mo1 1.0000000000 0.7997602105 0.5497602105 0.1250000000  Biso 1.0 Mo
Mo2 1.0000000000 0.7002397895 0.4502397895 0.6250000000  Biso 1.0 Mo
Mo3 1.0000000000 0.2002397895 0.0497602105 0.3750000000  Biso 1.0 Mo
Mo4 1.0000000000 0.2997602105 0.9502397895 0.8750000000  Biso 1.0 Mo
Mo5 1.0000000000 0.8750000000 0.7997602105 0.4502397895  Biso 1.0 Mo
Mo6 1.0000000000 0.3750000000 0.7002397895 0.5497602105  Biso 1.0 Mo
Mo7 1.0000000000 0.6250000000 0.2002397895 0.9502397895  Biso 1.0 Mo
Mo8 1.0000000000 0.1250000000 0.2997602105 0.0497602105  Biso 1.0 Mo
Mo9 1.0000000000 0.5497602105 0.8750000000 0.2002397895  Biso 1.0 Mo
Mo10 1.0000000000 0.4502397895 0.3750000000 0.2997602105  Biso 1.0 Mo
Mo11 1.0000000000 0.0497602105 0.6250000000 0.7997602105  Biso 1.0 Mo
Mo12 1.0000000000 0.9502397895 0.1250000000 0.7002397895  Biso 1.0 Mo
N13 1.0000000000 0.6250000000 0.6250000000 0.3750000000  Biso 1.0 N
N14 1.0000000000 0.8750000000 0.3750000000 0.8750000000  Biso 1.0 N
N15 1.0000000000 0.3750000000 0.1250000000 0.1250000000  Biso 1.0 N
N16 1.0000000000 0.1250000000 0.8750000000 0.6250000000  Biso 1.0 N
Ni17 1.0000000000 0.9336689269 0.9336689269 0.0663310731  Biso 1.0 Ni
Ni18 1.0000000000 0.5663310731 0.0663310731 0.5663310731  Biso 1.0 Ni
Ni19 1.0000000000 0.0663310731 0.4336689269 0.4336689269  Biso 1.0 Ni
Ni20 1.0000000000 0.4336689269 0.5663310731 0.9336689269  Biso 1.0 Ni
Ni21 1.0000000000 0.1836689269 0.6836689269 0.1836689269  Biso 1.0 Ni
Ni22 1.0000000000 0.3163310731 0.3163310731 0.6836689269  Biso 1.0 Ni
Ni23 1.0000000000 0.6836689269 0.8163310731 0.8163310731  Biso 1.0 Ni
Ni24 1.0000000000 0.8163310731 0.1836689269 0.3163310731  Biso 1.0 Ni
