# AFLOW.org Repositories
# N1   [CUB,CUB,cP8] (STD_PRIM doi:10.1016
data_N1
_pd_phase_name N1
_cell_length_a  5.8863308842
_cell_length_b  5.8863308842
_cell_length_c  5.8863308842
_cell_angle_alpha  90.0000000000
_cell_angle_beta  90.0000000000
_cell_angle_gamma  90.0000000000
_symmetry_space_group_name_H-M  'P1'
_symmetry_Int_Tables_Number  1
loop_
_symmetry_equiv_pos_site_id
_symmetry_equiv_pos_as_xyz
  1  x,y,z
loop_
 _atom_site_label
 _atom_site_occupancy
 _atom_site_fract_x
 _atom_site_fract_y
 _atom_site_fract_z
 _atom_site_thermal_displace_type
 _atom_site_B_iso_or_equiv
 _atom_site_type_symbol
N1 1.0000000000 0.4454340181 0.4454340181 0.5545659819  Biso 1.0 N
N2 1.0000000000 0.0545659819 0.5545659819 0.0545659819  Biso 1.0 N
N3 1.0000000000 0.5545659819 0.9454340181 0.9454340181  Biso 1.0 N
N4 1.0000000000 0.9454340181 0.0545659819 0.4454340181  Biso 1.0 N
N5 1.0000000000 0.5545659819 0.5545659819 0.4454340181  Biso 1.0 N
N6 1.0000000000 0.9454340181 0.4454340181 0.9454340181  Biso 1.0 N
N7 1.0000000000 0.4454340181 0.0545659819 0.0545659819  Biso 1.0 N
N8 1.0000000000 0.0545659819 0.9454340181 0.5545659819  Biso 1.0 N
