# AFLOW.org Repositories
# N1Re2Zr4   [FCC,FCC,cF112] (STD_PRIM doi
data_N1Re2Zr4
_pd_phase_name N1Re2Zr4
_cell_length_a  8.8450333841
_cell_length_b  8.8450333841
_cell_length_c  8.8450333841
_cell_angle_alpha  60.0000000000
_cell_angle_beta  60.0000000000
_cell_angle_gamma  60.0000000000
_symmetry_space_group_name_H-M  'P1'
_symmetry_Int_Tables_Number  1
loop_
_symmetry_equiv_pos_site_id
_symmetry_equiv_pos_as_xyz
  1  x,y,z
loop_
 _atom_site_label
 _atom_site_occupancy
 _atom_site_fract_x
 _atom_site_fract_y
 _atom_site_fract_z
 _atom_site_thermal_displace_type
 _atom_site_B_iso_or_equiv
 _atom_site_type_symbol
N1 1.0000000000 0.5000000000 0.5000000000 0.5000000000  Biso 1.0 N
N2 1.0000000000 0.0000000000 0.5000000000 0.0000000000  Biso 1.0 N
N3 1.0000000000 0.5000000000 0.0000000000 0.0000000000  Biso 1.0 N
N4 1.0000000000 0.5000000000 0.5000000000 0.0000000000  Biso 1.0 N
Re5 1.0000000000 0.2081895079 0.2081895079 0.3754314762  Biso 1.0 Re
Re6 1.0000000000 0.8754314762 0.2081895079 0.7081895079  Biso 1.0 Re
Re7 1.0000000000 0.2081895079 0.8754314762 0.7081895079  Biso 1.0 Re
Re8 1.0000000000 0.2081895079 0.2081895079 0.7081895079  Biso 1.0 Re
Re9 1.0000000000 0.1245685238 0.7918104921 0.2918104921  Biso 1.0 Re
Re10 1.0000000000 0.7918104921 0.7918104921 0.6245685238  Biso 1.0 Re
Re11 1.0000000000 0.7918104921 0.1245685238 0.2918104921  Biso 1.0 Re
Re12 1.0000000000 0.7918104921 0.7918104921 0.2918104921  Biso 1.0 Re
Zr13 1.0000000000 0.0000000000 0.0000000000 0.0000000000  Biso 1.0 Zr
Zr14 1.0000000000 0.5000000000 0.0000000000 0.5000000000  Biso 1.0 Zr
Zr15 1.0000000000 0.0000000000 0.5000000000 0.5000000000  Biso 1.0 Zr
Zr16 1.0000000000 0.0000000000 0.0000000000 0.5000000000  Biso 1.0 Zr
Zr17 1.0000000000 0.4396671092 0.4396671092 0.3103328908  Biso 1.0 Zr
Zr18 1.0000000000 0.8103328908 0.8103328908 0.9396671092  Biso 1.0 Zr
Zr19 1.0000000000 0.4396671092 0.8103328908 0.3103328908  Biso 1.0 Zr
Zr20 1.0000000000 0.8103328908 0.4396671092 0.9396671092  Biso 1.0 Zr
Zr21 1.0000000000 0.8103328908 0.4396671092 0.3103328908  Biso 1.0 Zr
Zr22 1.0000000000 0.4396671092 0.8103328908 0.9396671092  Biso 1.0 Zr
Zr23 1.0000000000 0.1896671092 0.5603328908 0.0603328908  Biso 1.0 Zr
Zr24 1.0000000000 0.5603328908 0.1896671092 0.6896671092  Biso 1.0 Zr
Zr25 1.0000000000 0.1896671092 0.1896671092 0.0603328908  Biso 1.0 Zr
Zr26 1.0000000000 0.5603328908 0.5603328908 0.6896671092  Biso 1.0 Zr
Zr27 1.0000000000 0.1896671092 0.5603328908 0.6896671092  Biso 1.0 Zr
Zr28 1.0000000000 0.5603328908 0.1896671092 0.0603328908  Biso 1.0 Zr
