# AFLOW.org Repositories
# N1Ru2Zr4   [FCC,FCC,cF112] (STD_PRIM doi
data_N1Ru2Zr4
_pd_phase_name N1Ru2Zr4
_cell_length_a  8.7791493844
_cell_length_b  8.7791493844
_cell_length_c  8.7791493844
_cell_angle_alpha  60.0000000000
_cell_angle_beta  60.0000000000
_cell_angle_gamma  60.0000000000
_symmetry_space_group_name_H-M  'P1'
_symmetry_Int_Tables_Number  1
loop_
_symmetry_equiv_pos_site_id
_symmetry_equiv_pos_as_xyz
  1  x,y,z
loop_
 _atom_site_label
 _atom_site_occupancy
 _atom_site_fract_x
 _atom_site_fract_y
 _atom_site_fract_z
 _atom_site_thermal_displace_type
 _atom_site_B_iso_or_equiv
 _atom_site_type_symbol
N1 1.0000000000 0.5000000000 0.5000000000 0.5000000000  Biso 1.0 N
N2 1.0000000000 0.0000000000 0.5000000000 0.0000000000  Biso 1.0 N
N3 1.0000000000 0.5000000000 0.0000000000 0.0000000000  Biso 1.0 N
N4 1.0000000000 0.5000000000 0.5000000000 0.0000000000  Biso 1.0 N
Ru5 1.0000000000 0.2126626452 0.2126626452 0.3620120643  Biso 1.0 Ru
Ru6 1.0000000000 0.8620120643 0.2126626452 0.7126626452  Biso 1.0 Ru
Ru7 1.0000000000 0.2126626452 0.8620120643 0.7126626452  Biso 1.0 Ru
Ru8 1.0000000000 0.2126626452 0.2126626452 0.7126626452  Biso 1.0 Ru
Ru9 1.0000000000 0.1379879357 0.7873373548 0.2873373548  Biso 1.0 Ru
Ru10 1.0000000000 0.7873373548 0.7873373548 0.6379879357  Biso 1.0 Ru
Ru11 1.0000000000 0.7873373548 0.1379879357 0.2873373548  Biso 1.0 Ru
Ru12 1.0000000000 0.7873373548 0.7873373548 0.2873373548  Biso 1.0 Ru
Zr13 1.0000000000 0.0000000000 0.0000000000 0.0000000000  Biso 1.0 Zr
Zr14 1.0000000000 0.5000000000 0.0000000000 0.5000000000  Biso 1.0 Zr
Zr15 1.0000000000 0.0000000000 0.5000000000 0.5000000000  Biso 1.0 Zr
Zr16 1.0000000000 0.0000000000 0.0000000000 0.5000000000  Biso 1.0 Zr
Zr17 1.0000000000 0.4409297358 0.4409297358 0.3090702642  Biso 1.0 Zr
Zr18 1.0000000000 0.8090702642 0.8090702642 0.9409297358  Biso 1.0 Zr
Zr19 1.0000000000 0.4409297358 0.8090702642 0.3090702642  Biso 1.0 Zr
Zr20 1.0000000000 0.8090702642 0.4409297358 0.9409297358  Biso 1.0 Zr
Zr21 1.0000000000 0.8090702642 0.4409297358 0.3090702642  Biso 1.0 Zr
Zr22 1.0000000000 0.4409297358 0.8090702642 0.9409297358  Biso 1.0 Zr
Zr23 1.0000000000 0.1909297358 0.5590702642 0.0590702642  Biso 1.0 Zr
Zr24 1.0000000000 0.5590702642 0.1909297358 0.6909297358  Biso 1.0 Zr
Zr25 1.0000000000 0.1909297358 0.1909297358 0.0590702642  Biso 1.0 Zr
Zr26 1.0000000000 0.5590702642 0.5590702642 0.6909297358  Biso 1.0 Zr
Zr27 1.0000000000 0.1909297358 0.5590702642 0.6909297358  Biso 1.0 Zr
Zr28 1.0000000000 0.5590702642 0.1909297358 0.0590702642  Biso 1.0 Zr
