# AFLOW.org Repositories
# N2Os1   [ORC,ORC,oP6] (STD_PRIM doi:10.1
data_N2Os1
_pd_phase_name N2Os1
_cell_length_a  2.7033250428
_cell_length_b  4.1473329883
_cell_length_c  4.9653681694
_cell_angle_alpha  90.0000000000
_cell_angle_beta  90.0000000000
_cell_angle_gamma  90.0000000000
_symmetry_space_group_name_H-M  'P1'
_symmetry_Int_Tables_Number  1
loop_
_symmetry_equiv_pos_site_id
_symmetry_equiv_pos_as_xyz
  1  x,y,z
loop_
 _atom_site_label
 _atom_site_occupancy
 _atom_site_fract_x
 _atom_site_fract_y
 _atom_site_fract_z
 _atom_site_thermal_displace_type
 _atom_site_B_iso_or_equiv
 _atom_site_type_symbol
N1 1.0000000000 0.0000000000 0.1249635554 0.5942342969  Biso 1.0 N
N2 1.0000000000 0.0000000000 0.8750364446 0.4057657031  Biso 1.0 N
N3 1.0000000000 0.5000000000 0.3750364446 0.0942342969  Biso 1.0 N
N4 1.0000000000 0.5000000000 0.6249635554 0.9057657031  Biso 1.0 N
Os5 1.0000000000 0.0000000000 0.0000000000 0.0000000000  Biso 1.0 Os
Os6 1.0000000000 0.5000000000 0.5000000000 0.5000000000  Biso 1.0 Os
