# AFLOW.org Repositories
# N2Re1   [MCLC,MCLC1,mS12] (STD_PRIM doi:
data_N2Re1
_pd_phase_name N2Re1
_cell_length_a  3.7048725916
_cell_length_b  3.7048725916
_cell_length_c  5.7745023237
_cell_angle_alpha  84.6147291960
_cell_angle_beta  84.6147291960
_cell_angle_gamma  45.2342108589
_symmetry_space_group_name_H-M  'P1'
_symmetry_Int_Tables_Number  1
loop_
_symmetry_equiv_pos_site_id
_symmetry_equiv_pos_as_xyz
  1  x,y,z
loop_
 _atom_site_label
 _atom_site_occupancy
 _atom_site_fract_x
 _atom_site_fract_y
 _atom_site_fract_z
 _atom_site_thermal_displace_type
 _atom_site_B_iso_or_equiv
 _atom_site_type_symbol
N1 1.0000000000 0.6273798027 0.6273798027 0.1358640672  Biso 1.0 N
N2 1.0000000000 0.3726201973 0.3726201973 0.8641359328  Biso 1.0 N
N3 1.0000000000 0.0970212183 0.0970212183 0.5291916008  Biso 1.0 N
N4 1.0000000000 0.9029787817 0.9029787817 0.4708083992  Biso 1.0 N
Re5 1.0000000000 0.3250776083 0.3250776083 0.2308200913  Biso 1.0 Re
Re6 1.0000000000 0.6749223917 0.6749223917 0.7691799087  Biso 1.0 Re
