# AFLOW.org Repositories
# N2Sr2Zn1   [BCT,BCT2,tI10] (STD_PRIM doi
data_N2Sr2Zn1
_pd_phase_name N2Sr2Zn1
_cell_length_a  6.9643276779
_cell_length_b  6.9643276779
_cell_length_c  6.9643276779
_cell_angle_alpha  147.7258779077
_cell_angle_beta  147.7258779077
_cell_angle_gamma  46.2901904421
_symmetry_space_group_name_H-M  'P1'
_symmetry_Int_Tables_Number  1
loop_
_symmetry_equiv_pos_site_id
_symmetry_equiv_pos_as_xyz
  1  x,y,z
loop_
 _atom_site_label
 _atom_site_occupancy
 _atom_site_fract_x
 _atom_site_fract_y
 _atom_site_fract_z
 _atom_site_thermal_displace_type
 _atom_site_B_iso_or_equiv
 _atom_site_type_symbol
N1 1.0000000000 0.1411018629 0.1411018629 0.0000000000  Biso 1.0 N
N2 1.0000000000 0.8588981371 0.8588981371 0.0000000000  Biso 1.0 N
Sr3 1.0000000000 0.3417002915 0.3417002915 0.0000000000  Biso 1.0 Sr
Sr4 1.0000000000 0.6582997085 0.6582997085 0.0000000000  Biso 1.0 Sr
Zn5 1.0000000000 0.0000000000 0.0000000000 0.0000000000  Biso 1.0 Zn
