# AFLOW.org Repositories
# Na2Ni1O2   [ORCC,ORCC,oS20] (STD_PRIM do
data_Na2Ni1O2
_pd_phase_name Na2Ni1O2
_cell_length_a  5.2909032598
_cell_length_b  5.2909032598
_cell_length_c  8.3121766482
_cell_angle_alpha  90.0000000000
_cell_angle_beta  90.0000000000
_cell_angle_gamma  148.8239419949
_symmetry_space_group_name_H-M  'P1'
_symmetry_Int_Tables_Number  1
loop_
_symmetry_equiv_pos_site_id
_symmetry_equiv_pos_as_xyz
  1  x,y,z
loop_
 _atom_site_label
 _atom_site_occupancy
 _atom_site_fract_x
 _atom_site_fract_y
 _atom_site_fract_z
 _atom_site_thermal_displace_type
 _atom_site_B_iso_or_equiv
 _atom_site_type_symbol
Na1 1.0000000000 0.8518654215 0.1481345785 0.3305923012  Biso 1.0 Na
Na2 1.0000000000 0.1481345785 0.8518654215 0.8305923012  Biso 1.0 Na
Na3 1.0000000000 0.6053841446 0.3946158554 0.1526822460  Biso 1.0 Na
Na4 1.0000000000 0.3946158554 0.6053841446 0.6526822460  Biso 1.0 Na
Ni5 1.0000000000 0.8785227786 0.1214772214 0.9986329840  Biso 1.0 Ni
Ni6 1.0000000000 0.1214772214 0.8785227786 0.4986329840  Biso 1.0 Ni
O7 1.0000000000 0.5203084907 0.4796915093 0.4104092257  Biso 1.0 O
O8 1.0000000000 0.4796915093 0.5203084907 0.9104092257  Biso 1.0 O
O9 1.0000000000 0.7210051058 0.2789948942 0.5929832430  Biso 1.0 O
O10 1.0000000000 0.2789948942 0.7210051058 0.0929832430  Biso 1.0 O
