# AFLOW.org Repositories
# Na3Sb1Se3   [CUB,CUB,cP28] (STD_PRIM doi
data_Na3Sb1Se3
_pd_phase_name Na3Sb1Se3
_cell_length_a  9.0531927175
_cell_length_b  9.0531927175
_cell_length_c  9.0531927175
_cell_angle_alpha  90.0000000000
_cell_angle_beta  90.0000000000
_cell_angle_gamma  90.0000000000
_symmetry_space_group_name_H-M  'P1'
_symmetry_Int_Tables_Number  1
loop_
_symmetry_equiv_pos_site_id
_symmetry_equiv_pos_as_xyz
  1  x,y,z
loop_
 _atom_site_label
 _atom_site_occupancy
 _atom_site_fract_x
 _atom_site_fract_y
 _atom_site_fract_z
 _atom_site_thermal_displace_type
 _atom_site_B_iso_or_equiv
 _atom_site_type_symbol
Na1 1.0000000000 0.4182429069 0.4182429069 0.5817570931  Biso 1.0 Na
Na2 1.0000000000 0.0817570931 0.5817570931 0.0817570931  Biso 1.0 Na
Na3 1.0000000000 0.5817570931 0.9182429069 0.9182429069  Biso 1.0 Na
Na4 1.0000000000 0.9182429069 0.0817570931 0.4182429069  Biso 1.0 Na
Na5 1.0000000000 0.6781020091 0.6781020091 0.3218979909  Biso 1.0 Na
Na6 1.0000000000 0.8218979909 0.3218979909 0.8218979909  Biso 1.0 Na
Na7 1.0000000000 0.3218979909 0.1781020091 0.1781020091  Biso 1.0 Na
Na8 1.0000000000 0.1781020091 0.8218979909 0.6781020091  Biso 1.0 Na
Na9 1.0000000000 0.1872182599 0.1872182599 0.8127817401  Biso 1.0 Na
Na10 1.0000000000 0.3127817401 0.8127817401 0.3127817401  Biso 1.0 Na
Na11 1.0000000000 0.8127817401 0.6872182599 0.6872182599  Biso 1.0 Na
Na12 1.0000000000 0.6872182599 0.3127817401 0.1872182599  Biso 1.0 Na
Sb13 1.0000000000 0.9629071526 0.9629071526 0.0370928474  Biso 1.0 Sb
Sb14 1.0000000000 0.5370928474 0.0370928474 0.5370928474  Biso 1.0 Sb
Sb15 1.0000000000 0.0370928474 0.4629071526 0.4629071526  Biso 1.0 Sb
Sb16 1.0000000000 0.4629071526 0.5370928474 0.9629071526  Biso 1.0 Sb
Se17 1.0000000000 0.7619922144 0.3856831549 0.5011488425  Biso 1.0 Se
Se18 1.0000000000 0.7380077856 0.6143168451 0.0011488425  Biso 1.0 Se
Se19 1.0000000000 0.2380077856 0.8856831549 0.9988511575  Biso 1.0 Se
Se20 1.0000000000 0.2619922144 0.1143168451 0.4988511575  Biso 1.0 Se
Se21 1.0000000000 0.4988511575 0.7619922144 0.6143168451  Biso 1.0 Se
Se22 1.0000000000 0.9988511575 0.7380077856 0.3856831549  Biso 1.0 Se
Se23 1.0000000000 0.0011488425 0.2380077856 0.1143168451  Biso 1.0 Se
Se24 1.0000000000 0.5011488425 0.2619922144 0.8856831549  Biso 1.0 Se
Se25 1.0000000000 0.3856831549 0.4988511575 0.2380077856  Biso 1.0 Se
Se26 1.0000000000 0.6143168451 0.9988511575 0.2619922144  Biso 1.0 Se
Se27 1.0000000000 0.8856831549 0.0011488425 0.7619922144  Biso 1.0 Se
Se28 1.0000000000 0.1143168451 0.5011488425 0.7380077856  Biso 1.0 Se
