# AFLOW.org Repositories
# Nb1Rh1   [ORC,ORC,oP12] (STD_PRIM doi:10
data_Nb1Rh1
_pd_phase_name Nb1Rh1
_cell_length_a  2.8644204456
_cell_length_b  4.8533119240
_cell_length_c  13.7788621970
_cell_angle_alpha  90.0000000000
_cell_angle_beta  90.0000000000
_cell_angle_gamma  90.0000000000
_symmetry_space_group_name_H-M  'P1'
_symmetry_Int_Tables_Number  1
loop_
_symmetry_equiv_pos_site_id
_symmetry_equiv_pos_as_xyz
  1  x,y,z
loop_
 _atom_site_label
 _atom_site_occupancy
 _atom_site_fract_x
 _atom_site_fract_y
 _atom_site_fract_z
 _atom_site_thermal_displace_type
 _atom_site_B_iso_or_equiv
 _atom_site_type_symbol
Nb1 1.0000000000 0.0000000000 0.9475717745 0.2500000000  Biso 1.0 Nb
Nb2 1.0000000000 0.0000000000 0.0524282255 0.7500000000  Biso 1.0 Nb
Nb3 1.0000000000 0.0000000000 0.6741005846 0.9151994976  Biso 1.0 Nb
Nb4 1.0000000000 0.0000000000 0.6741005846 0.5848005024  Biso 1.0 Nb
Nb5 1.0000000000 0.0000000000 0.3258994154 0.0848005024  Biso 1.0 Nb
Nb6 1.0000000000 0.0000000000 0.3258994154 0.4151994976  Biso 1.0 Nb
Rh7 1.0000000000 0.5000000000 0.4613466795 0.2500000000  Biso 1.0 Rh
Rh8 1.0000000000 0.5000000000 0.5386533205 0.7500000000  Biso 1.0 Rh
Rh9 1.0000000000 0.5000000000 0.1752120789 0.9175179942  Biso 1.0 Rh
Rh10 1.0000000000 0.5000000000 0.1752120789 0.5824820058  Biso 1.0 Rh
Rh11 1.0000000000 0.5000000000 0.8247879211 0.0824820058  Biso 1.0 Rh
Rh12 1.0000000000 0.5000000000 0.8247879211 0.4175179942  Biso 1.0 Rh
