# AFLOW.org Repositories
# Nb1Te4   [TET,TET,tP10] (STD_PRIM doi:10
data_Nb1Te4
_pd_phase_name Nb1Te4
_cell_length_a  6.6212362943
_cell_length_b  6.6212362943
_cell_length_c  6.9479461847
_cell_angle_alpha  90.0000000000
_cell_angle_beta  90.0000000000
_cell_angle_gamma  90.0000000000
_symmetry_space_group_name_H-M  'P1'
_symmetry_Int_Tables_Number  1
loop_
_symmetry_equiv_pos_site_id
_symmetry_equiv_pos_as_xyz
  1  x,y,z
loop_
 _atom_site_label
 _atom_site_occupancy
 _atom_site_fract_x
 _atom_site_fract_y
 _atom_site_fract_z
 _atom_site_thermal_displace_type
 _atom_site_B_iso_or_equiv
 _atom_site_type_symbol
Nb1 1.0000000000 0.0000000000 0.0000000000 0.2500000000  Biso 1.0 Nb
Nb2 1.0000000000 0.0000000000 0.0000000000 0.7500000000  Biso 1.0 Nb
Te3 1.0000000000 0.1410613060 0.3234822215 0.0000000000  Biso 1.0 Te
Te4 1.0000000000 0.8589386940 0.6765177785 0.0000000000  Biso 1.0 Te
Te5 1.0000000000 0.6765177785 0.1410613060 0.0000000000  Biso 1.0 Te
Te6 1.0000000000 0.3234822215 0.8589386940 0.0000000000  Biso 1.0 Te
Te7 1.0000000000 0.8589386940 0.3234822215 0.5000000000  Biso 1.0 Te
Te8 1.0000000000 0.1410613060 0.6765177785 0.5000000000  Biso 1.0 Te
Te9 1.0000000000 0.3234822215 0.1410613060 0.5000000000  Biso 1.0 Te
Te10 1.0000000000 0.6765177785 0.8589386940 0.5000000000  Biso 1.0 Te
