# AFLOW.org Repositories
# Nb6Ni16Si7   [FCC,FCC,cF116] (STD_PRIM d
data_Nb6Ni16Si7
_pd_phase_name Nb6Ni16Si7
_cell_length_a  7.9160702950
_cell_length_b  7.9160702950
_cell_length_c  7.9160702950
_cell_angle_alpha  60.0000000000
_cell_angle_beta  60.0000000000
_cell_angle_gamma  60.0000000000
_symmetry_space_group_name_H-M  'P1'
_symmetry_Int_Tables_Number  1
loop_
_symmetry_equiv_pos_site_id
_symmetry_equiv_pos_as_xyz
  1  x,y,z
loop_
 _atom_site_label
 _atom_site_occupancy
 _atom_site_fract_x
 _atom_site_fract_y
 _atom_site_fract_z
 _atom_site_thermal_displace_type
 _atom_site_B_iso_or_equiv
 _atom_site_type_symbol
Nb1 1.0000000000 0.2036571700 0.7963428300 0.2036571700  Biso 1.0 Nb
Nb2 1.0000000000 0.7963428300 0.2036571700 0.7963428300  Biso 1.0 Nb
Nb3 1.0000000000 0.2036571700 0.7963428300 0.7963428300  Biso 1.0 Nb
Nb4 1.0000000000 0.7963428300 0.2036571700 0.2036571700  Biso 1.0 Nb
Nb5 1.0000000000 0.2036571700 0.2036571700 0.7963428300  Biso 1.0 Nb
Nb6 1.0000000000 0.7963428300 0.7963428300 0.2036571700  Biso 1.0 Nb
Ni7 1.0000000000 0.5053520764 0.8315493079 0.8315493079  Biso 1.0 Ni
Ni8 1.0000000000 0.8315493079 0.5053520764 0.8315493079  Biso 1.0 Ni
Ni9 1.0000000000 0.8315493079 0.8315493079 0.8315493079  Biso 1.0 Ni
Ni10 1.0000000000 0.8315493079 0.8315493079 0.5053520764  Biso 1.0 Ni
Ni11 1.0000000000 0.1684506921 0.4946479236 0.1684506921  Biso 1.0 Ni
Ni12 1.0000000000 0.4946479236 0.1684506921 0.1684506921  Biso 1.0 Ni
Ni13 1.0000000000 0.1684506921 0.1684506921 0.1684506921  Biso 1.0 Ni
Ni14 1.0000000000 0.1684506921 0.1684506921 0.4946479236  Biso 1.0 Ni
Ni15 1.0000000000 0.1503913804 0.6165362065 0.6165362065  Biso 1.0 Ni
Ni16 1.0000000000 0.6165362065 0.1503913804 0.6165362065  Biso 1.0 Ni
Ni17 1.0000000000 0.6165362065 0.6165362065 0.6165362065  Biso 1.0 Ni
Ni18 1.0000000000 0.6165362065 0.6165362065 0.1503913804  Biso 1.0 Ni
Ni19 1.0000000000 0.3834637935 0.8496086196 0.3834637935  Biso 1.0 Ni
Ni20 1.0000000000 0.8496086196 0.3834637935 0.3834637935  Biso 1.0 Ni
Ni21 1.0000000000 0.3834637935 0.3834637935 0.3834637935  Biso 1.0 Ni
Ni22 1.0000000000 0.3834637935 0.3834637935 0.8496086196  Biso 1.0 Ni
Si23 1.0000000000 0.5000000000 0.0000000000 0.5000000000  Biso 1.0 Si
Si24 1.0000000000 0.0000000000 0.5000000000 0.0000000000  Biso 1.0 Si
Si25 1.0000000000 0.5000000000 0.0000000000 0.0000000000  Biso 1.0 Si
Si26 1.0000000000 0.0000000000 0.5000000000 0.5000000000  Biso 1.0 Si
Si27 1.0000000000 0.5000000000 0.5000000000 0.0000000000  Biso 1.0 Si
Si28 1.0000000000 0.0000000000 0.0000000000 0.5000000000  Biso 1.0 Si
Si29 1.0000000000 0.5000000000 0.5000000000 0.5000000000  Biso 1.0 Si
