# AFLOW.org Repositories
# Nd1Os4P12   [BCC,BCC,cI34] (STD_PRIM doi
data_Nd1Os4P12
_pd_phase_name Nd1Os4P12
_cell_length_a  7.0337690288
_cell_length_b  7.0337690288
_cell_length_c  7.0337690288
_cell_angle_alpha  109.4712206345
_cell_angle_beta  109.4712206345
_cell_angle_gamma  109.4712206345
_symmetry_space_group_name_H-M  'P1'
_symmetry_Int_Tables_Number  1
loop_
_symmetry_equiv_pos_site_id
_symmetry_equiv_pos_as_xyz
  1  x,y,z
loop_
 _atom_site_label
 _atom_site_occupancy
 _atom_site_fract_x
 _atom_site_fract_y
 _atom_site_fract_z
 _atom_site_thermal_displace_type
 _atom_site_B_iso_or_equiv
 _atom_site_type_symbol
Nd1 1.0000000000 0.0000000000 0.0000000000 0.0000000000  Biso 1.0 Nd
Os2 1.0000000000 0.5000000000 0.0000000000 0.0000000000  Biso 1.0 Os
Os3 1.0000000000 0.0000000000 0.5000000000 0.0000000000  Biso 1.0 Os
Os4 1.0000000000 0.5000000000 0.5000000000 0.5000000000  Biso 1.0 Os
Os5 1.0000000000 0.0000000000 0.0000000000 0.5000000000  Biso 1.0 Os
P6 1.0000000000 0.3573863538 0.2145708527 0.8571844989  Biso 1.0 P
P7 1.0000000000 0.3573863538 0.5002018549 0.1428155011  Biso 1.0 P
P8 1.0000000000 0.6426136462 0.4997981451 0.8571844989  Biso 1.0 P
P9 1.0000000000 0.6426136462 0.7854291473 0.1428155011  Biso 1.0 P
P10 1.0000000000 0.5002018549 0.1428155011 0.3573863538  Biso 1.0 P
P11 1.0000000000 0.2145708527 0.8571844989 0.3573863538  Biso 1.0 P
P12 1.0000000000 0.7854291473 0.1428155011 0.6426136462  Biso 1.0 P
P13 1.0000000000 0.4997981451 0.8571844989 0.6426136462  Biso 1.0 P
P14 1.0000000000 0.1428155011 0.6426136462 0.7854291473  Biso 1.0 P
P15 1.0000000000 0.8571844989 0.6426136462 0.4997981451  Biso 1.0 P
P16 1.0000000000 0.1428155011 0.3573863538 0.5002018549  Biso 1.0 P
P17 1.0000000000 0.8571844989 0.3573863538 0.2145708527  Biso 1.0 P
