# AFLOW.org Repositories
# Ni12P7Yb2   [HEX,HEX,hP21] (STD_PRIM doi
data_Ni12P7Yb2
_pd_phase_name Ni12P7Yb2
_cell_length_a  9.0185610654
_cell_length_b  9.0185610654
_cell_length_c  3.6345966938
_cell_angle_alpha  90.0000000000
_cell_angle_beta  90.0000000000
_cell_angle_gamma  120.0000000000
_symmetry_space_group_name_H-M  'P1'
_symmetry_Int_Tables_Number  1
loop_
_symmetry_equiv_pos_site_id
_symmetry_equiv_pos_as_xyz
  1  x,y,z
loop_
 _atom_site_label
 _atom_site_occupancy
 _atom_site_fract_x
 _atom_site_fract_y
 _atom_site_fract_z
 _atom_site_thermal_displace_type
 _atom_site_B_iso_or_equiv
 _atom_site_type_symbol
Ni1 1.0000000000 0.0582479330 0.6260046906 0.0000000000  Biso 1.0 Ni
Ni2 1.0000000000 0.3740176990 0.4322324737 0.0000000000  Biso 1.0 Ni
Ni3 1.0000000000 0.5677565008 0.9417686312 0.0000000000  Biso 1.0 Ni
Ni4 1.0000000000 0.2744027697 0.1219706035 0.0000000000  Biso 1.0 Ni
Ni5 1.0000000000 0.8780284342 0.1524324015 0.0000000000  Biso 1.0 Ni
Ni6 1.0000000000 0.8475690694 0.7255766546 0.0000000000  Biso 1.0 Ni
Ni7 1.0000000000 0.4298048238 0.0494439333 0.5000000000  Biso 1.0 Ni
Ni8 1.0000000000 0.9505299180 0.3803848356 0.5000000000  Biso 1.0 Ni
Ni9 1.0000000000 0.6196659853 0.5702037938 0.5000000000  Biso 1.0 Ni
Ni10 1.0000000000 0.0948344910 0.8815714378 0.5000000000  Biso 1.0 Ni
Ni11 1.0000000000 0.1184143827 0.2133705993 0.5000000000  Biso 1.0 Ni
Ni12 1.0000000000 0.7866552584 0.9050296751 0.5000000000  Biso 1.0 Ni
P13 1.0000000000 0.2939520456 0.8875059778 0.0000000000  Biso 1.0 P
P14 1.0000000000 0.1125048201 0.4064686577 0.0000000000  Biso 1.0 P
P15 1.0000000000 0.5935390055 0.7060265035 0.0000000000  Biso 1.0 P
P16 1.0000000000 0.4028197446 0.2957104245 0.5000000000  Biso 1.0 P
P17 1.0000000000 0.7043047015 0.1071292610 0.5000000000  Biso 1.0 P
P18 1.0000000000 0.8928982261 0.5971827894 0.5000000000  Biso 1.0 P
P19 1.0000000000 0.0000000000 0.0000000000 0.0000000000  Biso 1.0 P
Yb20 1.0000000000 0.6666725577 0.3333277695 0.0000000000  Biso 1.0 Yb
Yb21 1.0000000000 0.3333636400 0.6666686740 0.5000000000  Biso 1.0 Yb
