# AFLOW.org Repositories
# Ni1O1Zr3   [ORCC,ORCC,oS20] (STD_PRIM do
data_Ni1O1Zr3
_pd_phase_name Ni1O1Zr3
_cell_length_a  5.7328581215
_cell_length_b  5.7328581215
_cell_length_c  8.8389276456
_cell_angle_alpha  90.0000000000
_cell_angle_beta  90.0000000000
_cell_angle_gamma  145.9765407140
_symmetry_space_group_name_H-M  'P1'
_symmetry_Int_Tables_Number  1
loop_
_symmetry_equiv_pos_site_id
_symmetry_equiv_pos_as_xyz
  1  x,y,z
loop_
 _atom_site_label
 _atom_site_occupancy
 _atom_site_fract_x
 _atom_site_fract_y
 _atom_site_fract_z
 _atom_site_thermal_displace_type
 _atom_site_B_iso_or_equiv
 _atom_site_type_symbol
Ni1 1.0000000000 0.7549171274 0.2450828726 0.7500000000  Biso 1.0 Ni
Ni2 1.0000000000 0.2450828726 0.7549171274 0.2500000000  Biso 1.0 Ni
O3 1.0000000000 0.0000000000 0.0000000000 0.0000000000  Biso 1.0 O
O4 1.0000000000 0.0000000000 0.0000000000 0.5000000000  Biso 1.0 O
Zr5 1.0000000000 0.6350560912 0.3649439088 0.4400831788  Biso 1.0 Zr
Zr6 1.0000000000 0.3649439088 0.6350560912 0.9400831788  Biso 1.0 Zr
Zr7 1.0000000000 0.6350560912 0.3649439088 0.0599168212  Biso 1.0 Zr
Zr8 1.0000000000 0.3649439088 0.6350560912 0.5599168212  Biso 1.0 Zr
Zr9 1.0000000000 0.0658697470 0.9341302530 0.7500000000  Biso 1.0 Zr
Zr10 1.0000000000 0.9341302530 0.0658697470 0.2500000000  Biso 1.0 Zr
