# AFLOW.org Repositories
# Ni2P2Tb1   [BCT,BCT2,tI10] (STD_PRIM doi
data_Ni2P2Tb1
_pd_phase_name Ni2P2Tb1
_cell_length_a  5.4086316607
_cell_length_b  5.4086316607
_cell_length_c  5.4086316607
_cell_angle_alpha  138.1027676276
_cell_angle_beta  138.1027676276
_cell_angle_gamma  60.7456416333
_symmetry_space_group_name_H-M  'P1'
_symmetry_Int_Tables_Number  1
loop_
_symmetry_equiv_pos_site_id
_symmetry_equiv_pos_as_xyz
  1  x,y,z
loop_
 _atom_site_label
 _atom_site_occupancy
 _atom_site_fract_x
 _atom_site_fract_y
 _atom_site_fract_z
 _atom_site_thermal_displace_type
 _atom_site_B_iso_or_equiv
 _atom_site_type_symbol
Ni1 1.0000000000 0.2500000000 0.7500000000 0.5000000000  Biso 1.0 Ni
Ni2 1.0000000000 0.7500000000 0.2500000000 0.5000000000  Biso 1.0 Ni
P3 1.0000000000 0.3758889432 0.3758889432 0.0000000000  Biso 1.0 P
P4 1.0000000000 0.6241110568 0.6241110568 0.0000000000  Biso 1.0 P
Tb5 1.0000000000 0.0000000000 0.0000000000 0.0000000000  Biso 1.0 Tb
