# AFLOW.org Repositories
# Ni2S6Ta9   [HEX,HEX,hP17] (STD_PRIM doi:
data_Ni2S6Ta9
_pd_phase_name Ni2S6Ta9
_cell_length_a  10.2299215874
_cell_length_b  10.2299215874
_cell_length_c  3.4125606262
_cell_angle_alpha  90.0000000000
_cell_angle_beta  90.0000000000
_cell_angle_gamma  120.0000000000
_symmetry_space_group_name_H-M  'P1'
_symmetry_Int_Tables_Number  1
loop_
_symmetry_equiv_pos_site_id
_symmetry_equiv_pos_as_xyz
  1  x,y,z
loop_
 _atom_site_label
 _atom_site_occupancy
 _atom_site_fract_x
 _atom_site_fract_y
 _atom_site_fract_z
 _atom_site_thermal_displace_type
 _atom_site_B_iso_or_equiv
 _atom_site_type_symbol
Ni1 1.0000000000 0.6666804803 0.3333589583 0.0000000000  Biso 1.0 Ni
Ni2 1.0000000000 0.3333215220 0.6666410417 0.0000000000  Biso 1.0 Ni
S3 1.0000000000 0.0000000000 0.7310466527 0.5000000000  Biso 1.0 S
S4 1.0000000000 0.2689533473 0.2689533473 0.5000000000  Biso 1.0 S
S5 1.0000000000 0.7310364996 0.0000000000 0.5000000000  Biso 1.0 S
S6 1.0000000000 0.0000000000 0.2948224273 0.0000000000  Biso 1.0 S
S7 1.0000000000 0.7051775727 0.7051775727 0.0000000000  Biso 1.0 S
S8 1.0000000000 0.2948228878 0.0000000000 0.0000000000  Biso 1.0 S
Ta9 1.0000000000 0.0000000000 0.5468429840 0.0000000000  Biso 1.0 Ta
Ta10 1.0000000000 0.4531570160 0.4531570160 0.0000000000  Biso 1.0 Ta
Ta11 1.0000000000 0.5468450443 0.0000000000 0.0000000000  Biso 1.0 Ta
Ta12 1.0000000000 0.7361393936 0.5383771867 0.5000000000  Biso 1.0 Ta
Ta13 1.0000000000 0.4616455002 0.1977757989 0.5000000000  Biso 1.0 Ta
Ta14 1.0000000000 0.8022311219 0.2638781119 0.5000000000  Biso 1.0 Ta
Ta15 1.0000000000 0.1977622069 0.4616228133 0.5000000000  Biso 1.0 Ta
Ta16 1.0000000000 0.2638697013 0.8022242011 0.5000000000  Biso 1.0 Ta
Ta17 1.0000000000 0.5383530100 0.7361218881 0.5000000000  Biso 1.0 Ta
