# AFLOW.org Repositories
# O1Zr3   [HEX,HEX,hP8] (STD_PRIM doi:10.1
data_O1Zr3
_pd_phase_name O1Zr3
_cell_length_a  5.6667790051
_cell_length_b  5.6667790051
_cell_length_c  5.2386495507
_cell_angle_alpha  90.0000000000
_cell_angle_beta  90.0000000000
_cell_angle_gamma  120.0000000000
_symmetry_space_group_name_H-M  'P1'
_symmetry_Int_Tables_Number  1
loop_
_symmetry_equiv_pos_site_id
_symmetry_equiv_pos_as_xyz
  1  x,y,z
loop_
 _atom_site_label
 _atom_site_occupancy
 _atom_site_fract_x
 _atom_site_fract_y
 _atom_site_fract_z
 _atom_site_thermal_displace_type
 _atom_site_B_iso_or_equiv
 _atom_site_type_symbol
O1 1.0000000000 0.3333502374 0.6666754724 0.2500002289  Biso 1.0 O
O2 1.0000000000 0.6666497626 0.3333252350 0.7499997711  Biso 1.0 O
Zr3 1.0000000000 0.6613927930 0.6613927930 0.0000000000  Biso 1.0 Zr
Zr4 1.0000000000 0.3386105666 0.0000000000 0.0000000000  Biso 1.0 Zr
Zr5 1.0000000000 0.0000000000 0.3386150846 0.0000000000  Biso 1.0 Zr
Zr6 1.0000000000 0.3386088796 0.3386088796 0.4999936074  Biso 1.0 Zr
Zr7 1.0000000000 0.6613895579 0.0000000000 0.5000063926  Biso 1.0 Zr
Zr8 1.0000000000 0.0000000000 0.6613861295 0.5000000000  Biso 1.0 Zr
