# AFLOW.org Repositories
# O2Rb1Sc1   [HEX,HEX,hP8] (STD_PRIM doi:1
data_O2Rb1Sc1
_pd_phase_name O2Rb1Sc1
_cell_length_a  3.3197433197
_cell_length_b  3.3197433197
_cell_length_c  12.9215750796
_cell_angle_alpha  90.0000000000
_cell_angle_beta  90.0000000000
_cell_angle_gamma  120.0000000000
_symmetry_space_group_name_H-M  'P1'
_symmetry_Int_Tables_Number  1
loop_
_symmetry_equiv_pos_site_id
_symmetry_equiv_pos_as_xyz
  1  x,y,z
loop_
 _atom_site_label
 _atom_site_occupancy
 _atom_site_fract_x
 _atom_site_fract_y
 _atom_site_fract_z
 _atom_site_thermal_displace_type
 _atom_site_B_iso_or_equiv
 _atom_site_type_symbol
O1 1.0000000000 0.3333603379 0.6666801689 0.0847563603  Biso 1.0 O
O2 1.0000000000 0.6666396621 0.3333198311 0.5847563603  Biso 1.0 O
O3 1.0000000000 0.6666396621 0.3333198311 0.9152436397  Biso 1.0 O
O4 1.0000000000 0.3333603379 0.6666801689 0.4152436397  Biso 1.0 O
Rb5 1.0000000000 0.6666145464 0.3333072732 0.2500000000  Biso 1.0 Rb
Rb6 1.0000000000 0.3333854536 0.6666927268 0.7500000000  Biso 1.0 Rb
Sc7 1.0000000000 0.0000000000 0.0000000000 0.0000000000  Biso 1.0 Sc
Sc8 1.0000000000 0.0000000000 0.0000000000 0.5000000000  Biso 1.0 Sc
