# AFLOW.org Repositories
# O4Si1Zn2   [BCT,BCT1,tI28] (STD_PRIM doi
data_O4Si1Zn2
_pd_phase_name O4Si1Zn2
_cell_length_a  5.8845326555
_cell_length_b  5.8845326555
_cell_length_c  5.8845326555
_cell_angle_alpha  107.6217475883
_cell_angle_beta  107.6217475883
_cell_angle_gamma  113.2370800303
_symmetry_space_group_name_H-M  'P1'
_symmetry_Int_Tables_Number  1
loop_
_symmetry_equiv_pos_site_id
_symmetry_equiv_pos_as_xyz
  1  x,y,z
loop_
 _atom_site_label
 _atom_site_occupancy
 _atom_site_fract_x
 _atom_site_fract_y
 _atom_site_fract_z
 _atom_site_thermal_displace_type
 _atom_site_B_iso_or_equiv
 _atom_site_type_symbol
O1 1.0000000000 0.6270349687 0.4474055517 0.7872888038  Biso 1.0 O
O2 1.0000000000 0.6601167478 0.8397461648 0.2127111962  Biso 1.0 O
O3 1.0000000000 0.5525944483 0.3398832522 0.1796294170  Biso 1.0 O
O4 1.0000000000 0.1602538352 0.3729650313 0.8203705830  Biso 1.0 O
O5 1.0000000000 0.0898832522 0.8025944483 0.6796294170  Biso 1.0 O
O6 1.0000000000 0.1229650313 0.4102538352 0.3203705830  Biso 1.0 O
O7 1.0000000000 0.5897461648 0.9101167478 0.7127111962  Biso 1.0 O
O8 1.0000000000 0.1974055517 0.8770349687 0.2872888038  Biso 1.0 O
Si9 1.0000000000 0.5000000000 0.5000000000 0.0000000000  Biso 1.0 Si
Si10 1.0000000000 0.2500000000 0.7500000000 0.5000000000  Biso 1.0 Si
Zn11 1.0000000000 0.3750000000 0.2769541697 0.4019541697  Biso 1.0 Zn
Zn12 1.0000000000 0.8750000000 0.9730458303 0.5980458303  Biso 1.0 Zn
Zn13 1.0000000000 0.7230458303 0.1250000000 0.0980458303  Biso 1.0 Zn
Zn14 1.0000000000 0.0269541697 0.6250000000 0.9019541697  Biso 1.0 Zn
