# AFLOW.org Repositories
# O4V1Y1   [BCT,BCT1,tI24] (STD_PRIM doi:1
data_O4V1Y1
_pd_phase_name O4V1Y1
_cell_length_a  6.0162149189
_cell_length_b  6.0162149189
_cell_length_c  6.0162149189
_cell_angle_alpha  106.2521379788
_cell_angle_beta  106.2521379788
_cell_angle_gamma  116.1211301571
_symmetry_space_group_name_H-M  'P1'
_symmetry_Int_Tables_Number  1
loop_
_symmetry_equiv_pos_site_id
_symmetry_equiv_pos_as_xyz
  1  x,y,z
loop_
 _atom_site_label
 _atom_site_occupancy
 _atom_site_fract_x
 _atom_site_fract_y
 _atom_site_fract_z
 _atom_site_thermal_displace_type
 _atom_site_B_iso_or_equiv
 _atom_site_type_symbol
O1 1.0000000000 0.3649033217 0.7996609237 0.5652423980  Biso 1.0 O
O2 1.0000000000 0.7344185257 0.7996609237 0.9347576020  Biso 1.0 O
O3 1.0000000000 0.7996609237 0.3649033217 0.0652423980  Biso 1.0 O
O4 1.0000000000 0.7996609237 0.7344185257 0.4347576020  Biso 1.0 O
O5 1.0000000000 0.2655814743 0.2003390763 0.0652423980  Biso 1.0 O
O6 1.0000000000 0.6350966783 0.2003390763 0.4347576020  Biso 1.0 O
O7 1.0000000000 0.2003390763 0.6350966783 0.9347576020  Biso 1.0 O
O8 1.0000000000 0.2003390763 0.2655814743 0.5652423980  Biso 1.0 O
V9 1.0000000000 0.3750000000 0.6250000000 0.7500000000  Biso 1.0 V
V10 1.0000000000 0.6250000000 0.3750000000 0.2500000000  Biso 1.0 V
Y11 1.0000000000 0.1250000000 0.8750000000 0.2500000000  Biso 1.0 Y
Y12 1.0000000000 0.8750000000 0.1250000000 0.7500000000  Biso 1.0 Y
