# AFLOW.org Repositories
# O6Se2Sn1   [CUB,CUB,cP36] (STD_PRIM doi:
data_O6Se2Sn1
_pd_phase_name O6Se2Sn1
_cell_length_a  8.4277497149
_cell_length_b  8.4277497149
_cell_length_c  8.4277497149
_cell_angle_alpha  90.0000000000
_cell_angle_beta  90.0000000000
_cell_angle_gamma  90.0000000000
_symmetry_space_group_name_H-M  'P1'
_symmetry_Int_Tables_Number  1
loop_
_symmetry_equiv_pos_site_id
_symmetry_equiv_pos_as_xyz
  1  x,y,z
loop_
 _atom_site_label
 _atom_site_occupancy
 _atom_site_fract_x
 _atom_site_fract_y
 _atom_site_fract_z
 _atom_site_thermal_displace_type
 _atom_site_B_iso_or_equiv
 _atom_site_type_symbol
O1 1.0000000000 0.7531452003 0.5348253218 0.4668718730  Biso 1.0 O
O2 1.0000000000 0.7468547997 0.4651746782 0.9668718730  Biso 1.0 O
O3 1.0000000000 0.2468547997 0.0348253218 0.0331281270  Biso 1.0 O
O4 1.0000000000 0.2531452003 0.9651746782 0.5331281270  Biso 1.0 O
O5 1.0000000000 0.5331281270 0.7531452003 0.4651746782  Biso 1.0 O
O6 1.0000000000 0.0331281270 0.7468547997 0.5348253218  Biso 1.0 O
O7 1.0000000000 0.9668718730 0.2468547997 0.9651746782  Biso 1.0 O
O8 1.0000000000 0.4668718730 0.2531452003 0.0348253218  Biso 1.0 O
O9 1.0000000000 0.5348253218 0.5331281270 0.2468547997  Biso 1.0 O
O10 1.0000000000 0.4651746782 0.0331281270 0.2531452003  Biso 1.0 O
O11 1.0000000000 0.0348253218 0.9668718730 0.7531452003  Biso 1.0 O
O12 1.0000000000 0.9651746782 0.4668718730 0.7468547997  Biso 1.0 O
O13 1.0000000000 0.2468547997 0.4651746782 0.5331281270  Biso 1.0 O
O14 1.0000000000 0.2531452003 0.5348253218 0.0331281270  Biso 1.0 O
O15 1.0000000000 0.7531452003 0.9651746782 0.9668718730  Biso 1.0 O
O16 1.0000000000 0.7468547997 0.0348253218 0.4668718730  Biso 1.0 O
O17 1.0000000000 0.4668718730 0.2468547997 0.5348253218  Biso 1.0 O
O18 1.0000000000 0.9668718730 0.2531452003 0.4651746782  Biso 1.0 O
O19 1.0000000000 0.0331281270 0.7531452003 0.0348253218  Biso 1.0 O
O20 1.0000000000 0.5331281270 0.7468547997 0.9651746782  Biso 1.0 O
O21 1.0000000000 0.4651746782 0.4668718730 0.7531452003  Biso 1.0 O
O22 1.0000000000 0.5348253218 0.9668718730 0.7468547997  Biso 1.0 O
O23 1.0000000000 0.9651746782 0.0331281270 0.2468547997  Biso 1.0 O
O24 1.0000000000 0.0348253218 0.5331281270 0.2531452003  Biso 1.0 O
Se25 1.0000000000 0.6661423147 0.6661423147 0.3338576853  Biso 1.0 Se
Se26 1.0000000000 0.8338576853 0.3338576853 0.8338576853  Biso 1.0 Se
Se27 1.0000000000 0.3338576853 0.1661423147 0.1661423147  Biso 1.0 Se
Se28 1.0000000000 0.1661423147 0.8338576853 0.6661423147  Biso 1.0 Se
Se29 1.0000000000 0.3338576853 0.3338576853 0.6661423147  Biso 1.0 Se
Se30 1.0000000000 0.1661423147 0.6661423147 0.1661423147  Biso 1.0 Se
Se31 1.0000000000 0.6661423147 0.8338576853 0.8338576853  Biso 1.0 Se
Se32 1.0000000000 0.8338576853 0.1661423147 0.3338576853  Biso 1.0 Se
Sn33 1.0000000000 0.0000000000 0.0000000000 0.0000000000  Biso 1.0 Sn
Sn34 1.0000000000 0.5000000000 0.0000000000 0.5000000000  Biso 1.0 Sn
Sn35 1.0000000000 0.0000000000 0.5000000000 0.5000000000  Biso 1.0 Sn
Sn36 1.0000000000 0.5000000000 0.5000000000 0.0000000000  Biso 1.0 Sn
