# AFLOW.org Repositories
# O7Pt2Sb2   [FCC,FCC,cF88] (STD_PRIM doi:
data_O7Pt2Sb2
_pd_phase_name O7Pt2Sb2
_cell_length_a  7.2393652845
_cell_length_b  7.2393652845
_cell_length_c  7.2393652845
_cell_angle_alpha  60.0000000000
_cell_angle_beta  60.0000000000
_cell_angle_gamma  60.0000000000
_symmetry_space_group_name_H-M  'P1'
_symmetry_Int_Tables_Number  1
loop_
_symmetry_equiv_pos_site_id
_symmetry_equiv_pos_as_xyz
  1  x,y,z
loop_
 _atom_site_label
 _atom_site_occupancy
 _atom_site_fract_x
 _atom_site_fract_y
 _atom_site_fract_z
 _atom_site_thermal_displace_type
 _atom_site_B_iso_or_equiv
 _atom_site_type_symbol
O1 1.0000000000 0.2544679438 0.2544679381 0.7455320601  Biso 1.0 O
O2 1.0000000000 0.7455320948 0.7455320614 0.2544679283  Biso 1.0 O
O3 1.0000000000 0.2544679438 0.7455320617 0.2544679365  Biso 1.0 O
O4 1.0000000000 0.7455320948 0.2544679378 0.7455320519  Biso 1.0 O
O5 1.0000000000 0.2544679438 0.7455320617 0.7455320601  Biso 1.0 O
O6 1.0000000000 0.7455320948 0.2544679378 0.2544679283  Biso 1.0 O
O7 1.0000000000 0.0044679776 0.4955320613 0.0044679264  Biso 1.0 O
O8 1.0000000000 0.4955320900 0.0044679379 0.4955320534  Biso 1.0 O
O9 1.0000000000 0.0044679583 0.0044679380 0.4955320558  Biso 1.0 O
O10 1.0000000000 0.4955320900 0.4955320615 0.0044679298  Biso 1.0 O
O11 1.0000000000 0.4955320900 0.0044679379 0.0044679298  Biso 1.0 O
O12 1.0000000000 0.0044679583 0.4955320616 0.4955320558  Biso 1.0 O
O13 1.0000000000 0.5000000290 0.4999999997 0.4999999913  Biso 1.0 O
O14 1.0000000000 0.2500000241 0.2499999997 0.2499999928  Biso 1.0 O
Pt15 1.0000000000 0.3750000072 0.8749999999 0.8749999978  Biso 1.0 Pt
Pt16 1.0000000000 0.8750000362 0.8749999996 0.8749999892  Biso 1.0 Pt
Pt17 1.0000000000 0.8750000362 0.8749999996 0.3749999892  Biso 1.0 Pt
Pt18 1.0000000000 0.8750000362 0.3749999996 0.8749999892  Biso 1.0 Pt
Sb19 1.0000000000 0.8750000362 0.3749999996 0.3749999892  Biso 1.0 Sb
Sb20 1.0000000000 0.3750000266 0.3749999997 0.3749999921  Biso 1.0 Sb
Sb21 1.0000000000 0.3750000266 0.3749999997 0.8749999921  Biso 1.0 Sb
Sb22 1.0000000000 0.3750000266 0.8749999997 0.3749999921  Biso 1.0 Sb
