# AFLOW.org Repositories
# P1Sb1Zr2   [HEX,HEX,hP8] (STD_PRIM doi:1
data_P1Sb1Zr2
_pd_phase_name P1Sb1Zr2
_cell_length_a  3.8413938810
_cell_length_b  3.8413938810
_cell_length_c  13.4246755075
_cell_angle_alpha  90.0000000000
_cell_angle_beta  90.0000000000
_cell_angle_gamma  120.0000000000
_symmetry_space_group_name_H-M  'P1'
_symmetry_Int_Tables_Number  1
loop_
_symmetry_equiv_pos_site_id
_symmetry_equiv_pos_as_xyz
  1  x,y,z
loop_
 _atom_site_label
 _atom_site_occupancy
 _atom_site_fract_x
 _atom_site_fract_y
 _atom_site_fract_z
 _atom_site_thermal_displace_type
 _atom_site_B_iso_or_equiv
 _atom_site_type_symbol
P1 1.0000000000 0.0000000000 0.0000000000 0.0000000000  Biso 1.0 P
P2 1.0000000000 0.0000000000 0.0000000000 0.5000000000  Biso 1.0 P
Sb3 1.0000000000 0.3333689457 0.6666844729 0.7500000000  Biso 1.0 Sb
Sb4 1.0000000000 0.6666310543 0.3333155271 0.2500000000  Biso 1.0 Sb
Zr5 1.0000000000 0.3333684435 0.6666842218 0.1026690879  Biso 1.0 Zr
Zr6 1.0000000000 0.6666315565 0.3333157782 0.6026690879  Biso 1.0 Zr
Zr7 1.0000000000 0.6666315565 0.3333157782 0.8973309121  Biso 1.0 Zr
Zr8 1.0000000000 0.3333684435 0.6666842218 0.3973309121  Biso 1.0 Zr
