# AFLOW.org Repositories
# P2Sc3   [ORC,ORC,oP20] (STD_PRIM doi:10.
data_P2Sc3
_pd_phase_name P2Sc3
_cell_length_a  3.7665189103
_cell_length_b  10.2577725807
_cell_length_c  10.3371945436
_cell_angle_alpha  90.0000000000
_cell_angle_beta  90.0000000000
_cell_angle_gamma  90.0000000000
_symmetry_space_group_name_H-M  'P1'
_symmetry_Int_Tables_Number  1
loop_
_symmetry_equiv_pos_site_id
_symmetry_equiv_pos_as_xyz
  1  x,y,z
loop_
 _atom_site_label
 _atom_site_occupancy
 _atom_site_fract_x
 _atom_site_fract_y
 _atom_site_fract_z
 _atom_site_thermal_displace_type
 _atom_site_B_iso_or_equiv
 _atom_site_type_symbol
P1 1.0000000000 0.2500000000 0.3147641928 0.5055530922  Biso 1.0 P
P2 1.0000000000 0.7500000000 0.1852609128 0.0054294525  Biso 1.0 P
P3 1.0000000000 0.7500000000 0.6852358072 0.4944469078  Biso 1.0 P
P4 1.0000000000 0.2500000000 0.8147390872 0.9945705475  Biso 1.0 P
P5 1.0000000000 0.2500000000 0.4865309040 0.1792503009  Biso 1.0 P
P6 1.0000000000 0.7500000000 0.0134308175 0.6792196490  Biso 1.0 P
P7 1.0000000000 0.7500000000 0.5134690960 0.8207496991  Biso 1.0 P
P8 1.0000000000 0.2500000000 0.9865691825 0.3207803510  Biso 1.0 P
Sc9 1.0000000000 0.2500000000 0.0504155028 0.8671929447  Biso 1.0 Sc
Sc10 1.0000000000 0.7500000000 0.4495265117 0.3672160496  Biso 1.0 Sc
Sc11 1.0000000000 0.7500000000 0.9495844972 0.1328070553  Biso 1.0 Sc
Sc12 1.0000000000 0.2500000000 0.5504734883 0.6327839504  Biso 1.0 Sc
Sc13 1.0000000000 0.2500000000 0.3738035401 0.9362577328  Biso 1.0 Sc
Sc14 1.0000000000 0.7500000000 0.1262395619 0.4362845920  Biso 1.0 Sc
Sc15 1.0000000000 0.7500000000 0.6261964599 0.0637422672  Biso 1.0 Sc
Sc16 1.0000000000 0.2500000000 0.8737604381 0.5637154080  Biso 1.0 Sc
Sc17 1.0000000000 0.2500000000 0.2219345379 0.1994773509  Biso 1.0 Sc
Sc18 1.0000000000 0.7500000000 0.2780536878 0.6995527997  Biso 1.0 Sc
Sc19 1.0000000000 0.7500000000 0.7780654621 0.8005226491  Biso 1.0 Sc
Sc20 1.0000000000 0.2500000000 0.7219463122 0.3004472003  Biso 1.0 Sc
