# AFLOW.org Repositories
# P7Pd9Zr5   [ORCC,ORCC,oS42] (STD_PRIM do
data_P7Pd9Zr5
_pd_phase_name P7Pd9Zr5
_cell_length_a  13.6811972628
_cell_length_b  13.6811972628
_cell_length_c  3.8191240761
_cell_angle_alpha  90.0000000000
_cell_angle_beta  90.0000000000
_cell_angle_gamma  152.3237978468
_symmetry_space_group_name_H-M  'P1'
_symmetry_Int_Tables_Number  1
loop_
_symmetry_equiv_pos_site_id
_symmetry_equiv_pos_as_xyz
  1  x,y,z
loop_
 _atom_site_label
 _atom_site_occupancy
 _atom_site_fract_x
 _atom_site_fract_y
 _atom_site_fract_z
 _atom_site_thermal_displace_type
 _atom_site_B_iso_or_equiv
 _atom_site_type_symbol
P1 1.0000000000 0.1215925464 0.1215925464 0.0000000000  Biso 1.0 P
P2 1.0000000000 0.8224464885 0.3929891473 0.0000000000  Biso 1.0 P
P3 1.0000000000 0.3929891473 0.8224464885 0.0000000000  Biso 1.0 P
P4 1.0000000000 0.6888870358 0.5517767521 0.5000000000  Biso 1.0 P
P5 1.0000000000 0.5517767521 0.6888870358 0.5000000000  Biso 1.0 P
P6 1.0000000000 0.2587457105 0.9711444957 0.5000000000  Biso 1.0 P
P7 1.0000000000 0.9711444957 0.2587457105 0.5000000000  Biso 1.0 P
Pd8 1.0000000000 0.3119984025 0.1957127430 0.5000000000  Biso 1.0 Pd
Pd9 1.0000000000 0.1957127430 0.3119984025 0.5000000000  Biso 1.0 Pd
Pd10 1.0000000000 0.8625761183 0.5451765367 0.5000000000  Biso 1.0 Pd
Pd11 1.0000000000 0.5451765367 0.8625761183 0.5000000000  Biso 1.0 Pd
Pd12 1.0000000000 0.1883732891 0.7961179476 0.0000000000  Biso 1.0 Pd
Pd13 1.0000000000 0.7961179476 0.1883732891 0.0000000000  Biso 1.0 Pd
Pd14 1.0000000000 0.8761240615 0.8761240615 0.5000000000  Biso 1.0 Pd
Pd15 1.0000000000 0.5047350264 0.2294505394 0.0000000000  Biso 1.0 Pd
Pd16 1.0000000000 0.2294505394 0.5047350264 0.0000000000  Biso 1.0 Pd
Zr17 1.0000000000 0.9947686314 0.8173930508 0.0000000000  Biso 1.0 Zr
Zr18 1.0000000000 0.8173930508 0.9947686314 0.0000000000  Biso 1.0 Zr
Zr19 1.0000000000 0.5219877964 0.5219877964 0.0000000000  Biso 1.0 Zr
Zr20 1.0000000000 0.0927776709 0.5500260096 0.5000000000  Biso 1.0 Zr
Zr21 1.0000000000 0.5500260096 0.0927776709 0.5000000000  Biso 1.0 Zr
