# AFLOW.org Repositories
# Pd1Sb2U1   [TET,TET,tP8] (STD_PRIM doi:1
data_Pd1Sb2U1
_pd_phase_name Pd1Sb2U1
_cell_length_a  4.4186546835
_cell_length_b  4.4186546835
_cell_length_c  9.7321719676
_cell_angle_alpha  90.0000000000
_cell_angle_beta  90.0000000000
_cell_angle_gamma  90.0000000000
_symmetry_space_group_name_H-M  'P1'
_symmetry_Int_Tables_Number  1
loop_
_symmetry_equiv_pos_site_id
_symmetry_equiv_pos_as_xyz
  1  x,y,z
loop_
 _atom_site_label
 _atom_site_occupancy
 _atom_site_fract_x
 _atom_site_fract_y
 _atom_site_fract_z
 _atom_site_thermal_displace_type
 _atom_site_B_iso_or_equiv
 _atom_site_type_symbol
Pd1 1.0000000000 0.7500000000 0.2500000000 0.5000000000  Biso 1.0 Pd
Pd2 1.0000000000 0.2500000000 0.7500000000 0.5000000000  Biso 1.0 Pd
Sb3 1.0000000000 0.7500000000 0.2500000000 0.0000000000  Biso 1.0 Sb
Sb4 1.0000000000 0.2500000000 0.7500000000 0.0000000000  Biso 1.0 Sb
Sb5 1.0000000000 0.2500000000 0.2500000000 0.6704311218  Biso 1.0 Sb
Sb6 1.0000000000 0.7500000000 0.7500000000 0.3295688782  Biso 1.0 Sb
U7 1.0000000000 0.2500000000 0.2500000000 0.2536143249  Biso 1.0 U
U8 1.0000000000 0.7500000000 0.7500000000 0.7463856751  Biso 1.0 U
