# AFLOW.org Repositories
# Pd1Th1   [ORC,ORC,oP8] (STD_PRIM doi:10.
data_Pd1Th1
_pd_phase_name Pd1Th1
_cell_length_a  4.7012979072
_cell_length_b  5.9555072818
_cell_length_c  7.4114423207
_cell_angle_alpha  90.0000000000
_cell_angle_beta  90.0000000000
_cell_angle_gamma  90.0000000000
_symmetry_space_group_name_H-M  'P1'
_symmetry_Int_Tables_Number  1
loop_
_symmetry_equiv_pos_site_id
_symmetry_equiv_pos_as_xyz
  1  x,y,z
loop_
 _atom_site_label
 _atom_site_occupancy
 _atom_site_fract_x
 _atom_site_fract_y
 _atom_site_fract_z
 _atom_site_thermal_displace_type
 _atom_site_B_iso_or_equiv
 _atom_site_type_symbol
Pd1 1.0000000000 0.7500000000 0.3614014215 0.0419818028  Biso 1.0 Pd
Pd2 1.0000000000 0.2500000000 0.8614014215 0.4580181972  Biso 1.0 Pd
Pd3 1.0000000000 0.2500000000 0.6385985785 0.9580181972  Biso 1.0 Pd
Pd4 1.0000000000 0.7500000000 0.1385985785 0.5419818028  Biso 1.0 Pd
Th5 1.0000000000 0.7500000000 0.8661766495 0.1779727293  Biso 1.0 Th
Th6 1.0000000000 0.2500000000 0.3661766495 0.3220272707  Biso 1.0 Th
Th7 1.0000000000 0.2500000000 0.1338233505 0.8220272707  Biso 1.0 Th
Th8 1.0000000000 0.7500000000 0.6338233505 0.6779727293  Biso 1.0 Th
