# AFLOW.org Repositories
# Pd2Sb1   [ORCC,ORCC,oS24] (STD_PRIM doi:
data_Pd2Sb1
_pd_phase_name Pd2Sb1
_cell_length_a  9.0269972068
_cell_length_b  9.0269972068
_cell_length_c  7.0442212473
_cell_angle_alpha  90.0000000000
_cell_angle_beta  90.0000000000
_cell_angle_gamma  158.2716427052
_symmetry_space_group_name_H-M  'P1'
_symmetry_Int_Tables_Number  1
loop_
_symmetry_equiv_pos_site_id
_symmetry_equiv_pos_as_xyz
  1  x,y,z
loop_
 _atom_site_label
 _atom_site_occupancy
 _atom_site_fract_x
 _atom_site_fract_y
 _atom_site_fract_z
 _atom_site_thermal_displace_type
 _atom_site_B_iso_or_equiv
 _atom_site_type_symbol
Pd1 1.0000000000 0.0374772053 0.9625227947 0.0021657687  Biso 1.0 Pd
Pd2 1.0000000000 0.9625227947 0.0374772053 0.5021657687  Biso 1.0 Pd
Pd3 1.0000000000 0.8242860466 0.1757139534 0.1070543385  Biso 1.0 Pd
Pd4 1.0000000000 0.1757139534 0.8242860466 0.6070543385  Biso 1.0 Pd
Pd5 1.0000000000 0.6702178184 0.3297821816 0.9529841722  Biso 1.0 Pd
Pd6 1.0000000000 0.3297821816 0.6702178184 0.4529841722  Biso 1.0 Pd
Pd7 1.0000000000 0.4135015155 0.5864984845 0.8260158518  Biso 1.0 Pd
Pd8 1.0000000000 0.5864984845 0.4135015155 0.3260158518  Biso 1.0 Pd
Sb9 1.0000000000 0.4422380927 0.5577619073 0.1965839802  Biso 1.0 Sb
Sb10 1.0000000000 0.5577619073 0.4422380927 0.6965839802  Biso 1.0 Sb
Sb11 1.0000000000 0.7946264229 0.2053735771 0.7294958887  Biso 1.0 Sb
Sb12 1.0000000000 0.2053735771 0.7946264229 0.2294958887  Biso 1.0 Sb
