# AFLOW.org Repositories
# Pd2Ta1   [ORCI,ORCI,oI6] (STD_PRIM doi:1
data_Pd2Ta1
_pd_phase_name Pd2Ta1
_cell_length_a  4.8952104330
_cell_length_b  4.8952104330
_cell_length_c  4.8952104330
_cell_angle_alpha  145.1084926554
_cell_angle_beta  133.9713553192
_cell_angle_gamma  59.0335993385
_symmetry_space_group_name_H-M  'P1'
_symmetry_Int_Tables_Number  1
loop_
_symmetry_equiv_pos_site_id
_symmetry_equiv_pos_as_xyz
  1  x,y,z
loop_
 _atom_site_label
 _atom_site_occupancy
 _atom_site_fract_x
 _atom_site_fract_y
 _atom_site_fract_z
 _atom_site_thermal_displace_type
 _atom_site_B_iso_or_equiv
 _atom_site_type_symbol
Pd1 1.0000000000 0.6649469648 0.6649469648 0.0000000000  Biso 1.0 Pd
Pd2 1.0000000000 0.3350530352 0.3350530352 0.0000000000  Biso 1.0 Pd
Ta3 1.0000000000 0.0000000000 0.0000000000 0.0000000000  Biso 1.0 Ta
