# AFLOW.org Repositories
# Pt1Y3   [ORC,ORC,oP16] (STD_PRIM doi:10.
data_Pt1Y3
_pd_phase_name Pt1Y3
_cell_length_a  6.5011155263
_cell_length_b  7.0416273516
_cell_length_c  9.6517885185
_cell_angle_alpha  90.0000000000
_cell_angle_beta  90.0000000000
_cell_angle_gamma  90.0000000000
_symmetry_space_group_name_H-M  'P1'
_symmetry_Int_Tables_Number  1
loop_
_symmetry_equiv_pos_site_id
_symmetry_equiv_pos_as_xyz
  1  x,y,z
loop_
 _atom_site_label
 _atom_site_occupancy
 _atom_site_fract_x
 _atom_site_fract_y
 _atom_site_fract_z
 _atom_site_thermal_displace_type
 _atom_site_B_iso_or_equiv
 _atom_site_type_symbol
Pt1 1.0000000000 0.0526020857 0.3871960976 0.7500000000  Biso 1.0 Pt
Pt2 1.0000000000 0.5526020857 0.1128039024 0.2500000000  Biso 1.0 Pt
Pt3 1.0000000000 0.9473979143 0.6128039024 0.2500000000  Biso 1.0 Pt
Pt4 1.0000000000 0.4473979143 0.8871960976 0.7500000000  Biso 1.0 Pt
Y5 1.0000000000 0.8641897348 0.0267748611 0.7500000000  Biso 1.0 Y
Y6 1.0000000000 0.3641897348 0.4732251389 0.2500000000  Biso 1.0 Y
Y7 1.0000000000 0.1358102652 0.9732251389 0.2500000000  Biso 1.0 Y
Y8 1.0000000000 0.6358102652 0.5267748611 0.7500000000  Biso 1.0 Y
Y9 1.0000000000 0.3216093663 0.1800887831 0.9378223107  Biso 1.0 Y
Y10 1.0000000000 0.8216093663 0.3199112169 0.0621776893  Biso 1.0 Y
Y11 1.0000000000 0.6783906337 0.8199112169 0.4378223107  Biso 1.0 Y
Y12 1.0000000000 0.1783906337 0.6800887831 0.5621776893  Biso 1.0 Y
Y13 1.0000000000 0.6783906337 0.8199112169 0.0621776893  Biso 1.0 Y
Y14 1.0000000000 0.1783906337 0.6800887831 0.9378223107  Biso 1.0 Y
Y15 1.0000000000 0.3216093663 0.1800887831 0.5621776893  Biso 1.0 Y
Y16 1.0000000000 0.8216093663 0.3199112169 0.4378223107  Biso 1.0 Y
