# AFLOW.org Repositories
# Pt2W1   [ORCI,ORCI,oI6] (STD_PRIM doi:10
data_Pt2W1
_pd_phase_name Pt2W1
_cell_length_a  4.8149366445
_cell_length_b  4.8149366445
_cell_length_c  4.8149366445
_cell_angle_alpha  146.2385091153
_cell_angle_beta  131.5245837605
_cell_angle_gamma  60.3764299198
_symmetry_space_group_name_H-M  'P1'
_symmetry_Int_Tables_Number  1
loop_
_symmetry_equiv_pos_site_id
_symmetry_equiv_pos_as_xyz
  1  x,y,z
loop_
 _atom_site_label
 _atom_site_occupancy
 _atom_site_fract_x
 _atom_site_fract_y
 _atom_site_fract_z
 _atom_site_thermal_displace_type
 _atom_site_B_iso_or_equiv
 _atom_site_type_symbol
Pt1 1.0000000000 0.6635246361 0.6635246361 0.0000000000  Biso 1.0 Pt
Pt2 1.0000000000 0.3364753639 0.3364753639 0.0000000000  Biso 1.0 Pt
W3 1.0000000000 0.0000000000 0.0000000000 0.0000000000  Biso 1.0 W
