# AFLOW.org Repositories
# Re2W1   [HEX,HEX,hP12] (STD_PRIM doi:10.
data_Re2W1
_pd_phase_name Re2W1
_cell_length_a  5.1517097301
_cell_length_b  5.1517097301
_cell_length_c  8.3780919093
_cell_angle_alpha  90.0000000000
_cell_angle_beta  90.0000000000
_cell_angle_gamma  120.0000000000
_symmetry_space_group_name_H-M  'P1'
_symmetry_Int_Tables_Number  1
loop_
_symmetry_equiv_pos_site_id
_symmetry_equiv_pos_as_xyz
  1  x,y,z
loop_
 _atom_site_label
 _atom_site_occupancy
 _atom_site_fract_x
 _atom_site_fract_y
 _atom_site_fract_z
 _atom_site_thermal_displace_type
 _atom_site_B_iso_or_equiv
 _atom_site_type_symbol
Re1 1.0000000000 0.0000000000 0.0000000000 0.0000000000  Biso 1.0 Re
Re2 1.0000000000 0.0000000000 0.0000000000 0.5000000000  Biso 1.0 Re
Re3 1.0000000000 0.6556186887 0.8278190803 0.2500000000  Biso 1.0 Re
Re4 1.0000000000 0.1722003916 0.8278190803 0.2500000000  Biso 1.0 Re
Re5 1.0000000000 0.1721918297 0.3443836594 0.2500000000  Biso 1.0 Re
Re6 1.0000000000 0.3443813113 0.1721809197 0.7500000000  Biso 1.0 Re
Re7 1.0000000000 0.8277996084 0.1721809197 0.7500000000  Biso 1.0 Re
Re8 1.0000000000 0.8278081703 0.6556163406 0.7500000000  Biso 1.0 Re
W9 1.0000000000 0.6666832737 0.3333665474 0.0648910085  Biso 1.0 W
W10 1.0000000000 0.3333167263 0.6666334526 0.5648910085  Biso 1.0 W
W11 1.0000000000 0.3333167263 0.6666334526 0.9351089915  Biso 1.0 W
W12 1.0000000000 0.6666832737 0.3333665474 0.4351089915  Biso 1.0 W
