# AFLOW.org Repositories
# Re5Si3   [BCT,BCT1,tI32] (STD_PRIM doi:1
data_Re5Si3
_pd_phase_name Re5Si3
_cell_length_a  7.1426919463
_cell_length_b  7.1426919463
_cell_length_c  7.1426919463
_cell_angle_alpha  96.9129253524
_cell_angle_beta  96.9129253524
_cell_angle_gamma  139.4006258930
_symmetry_space_group_name_H-M  'P1'
_symmetry_Int_Tables_Number  1
loop_
_symmetry_equiv_pos_site_id
_symmetry_equiv_pos_as_xyz
  1  x,y,z
loop_
 _atom_site_label
 _atom_site_occupancy
 _atom_site_fract_x
 _atom_site_fract_y
 _atom_site_fract_z
 _atom_site_thermal_displace_type
 _atom_site_B_iso_or_equiv
 _atom_site_type_symbol
Re1 1.0000000000 0.9265269480 0.7777248406 0.7042517886  Biso 1.0 Re
Re2 1.0000000000 0.0734730520 0.2222751594 0.2957482114  Biso 1.0 Re
Re3 1.0000000000 0.2222751594 0.9265269480 0.1488021073  Biso 1.0 Re
Re4 1.0000000000 0.7777248406 0.0734730520 0.8511978927  Biso 1.0 Re
Re5 1.0000000000 0.5734730520 0.2777248406 0.8511978927  Biso 1.0 Re
Re6 1.0000000000 0.4265269480 0.7222751594 0.1488021073  Biso 1.0 Re
Re7 1.0000000000 0.2777248406 0.4265269480 0.7042517886  Biso 1.0 Re
Re8 1.0000000000 0.7222751594 0.5734730520 0.2957482114  Biso 1.0 Re
Re9 1.0000000000 0.7500000000 0.2500000000 0.5000000000  Biso 1.0 Re
Re10 1.0000000000 0.2500000000 0.7500000000 0.5000000000  Biso 1.0 Re
Si11 1.0000000000 0.8289133006 0.3289133006 0.1578266012  Biso 1.0 Si
Si12 1.0000000000 0.1710866994 0.6710866994 0.8421733988  Biso 1.0 Si
Si13 1.0000000000 0.6710866994 0.8289133006 0.5000000000  Biso 1.0 Si
Si14 1.0000000000 0.3289133006 0.1710866994 0.5000000000  Biso 1.0 Si
Si15 1.0000000000 0.7500000000 0.7500000000 0.0000000000  Biso 1.0 Si
Si16 1.0000000000 0.2500000000 0.2500000000 0.0000000000  Biso 1.0 Si
