# AFLOW.org Repositories
# Ru1Si1Y1   [ORC,ORC,oP12] (STD_PRIM doi:
data_Ru1Si1Y1
_pd_phase_name Ru1Si1Y1
_cell_length_a  4.3237752444
_cell_length_b  7.0097820771
_cell_length_c  7.1213259032
_cell_angle_alpha  90.0000000000
_cell_angle_beta  90.0000000000
_cell_angle_gamma  90.0000000000
_symmetry_space_group_name_H-M  'P1'
_symmetry_Int_Tables_Number  1
loop_
_symmetry_equiv_pos_site_id
_symmetry_equiv_pos_as_xyz
  1  x,y,z
loop_
 _atom_site_label
 _atom_site_occupancy
 _atom_site_fract_x
 _atom_site_fract_y
 _atom_site_fract_z
 _atom_site_thermal_displace_type
 _atom_site_B_iso_or_equiv
 _atom_site_type_symbol
Ru1 1.0000000000 0.2500000000 0.1520505078 0.4332470552  Biso 1.0 Ru
Ru2 1.0000000000 0.7500000000 0.3479494922 0.9332470552  Biso 1.0 Ru
Ru3 1.0000000000 0.7500000000 0.8479494922 0.5667529448  Biso 1.0 Ru
Ru4 1.0000000000 0.2500000000 0.6520505078 0.0667529448  Biso 1.0 Ru
Si5 1.0000000000 0.2500000000 0.8043896360 0.3951403287  Biso 1.0 Si
Si6 1.0000000000 0.7500000000 0.6956103640 0.8951403287  Biso 1.0 Si
Si7 1.0000000000 0.7500000000 0.1956103640 0.6048596713  Biso 1.0 Si
Si8 1.0000000000 0.2500000000 0.3043896360 0.1048596713  Biso 1.0 Si
Y9 1.0000000000 0.2500000000 0.4871225339 0.6870552295  Biso 1.0 Y
Y10 1.0000000000 0.7500000000 0.0128774661 0.1870552295  Biso 1.0 Y
Y11 1.0000000000 0.7500000000 0.5128774661 0.3129447705  Biso 1.0 Y
Y12 1.0000000000 0.2500000000 0.9871225339 0.8129447705  Biso 1.0 Y
