# AFLOW.org Repositories
# Ru1V3Zr2   [HEX,HEX,hP12] (STD_PRIM doi:
data_Ru1V3Zr2
_pd_phase_name Ru1V3Zr2
_cell_length_a  5.3349480678
_cell_length_b  5.3349480678
_cell_length_c  8.2241572012
_cell_angle_alpha  90.0000000000
_cell_angle_beta  90.0000000000
_cell_angle_gamma  120.0000000000
_symmetry_space_group_name_H-M  'P1'
_symmetry_Int_Tables_Number  1
loop_
_symmetry_equiv_pos_site_id
_symmetry_equiv_pos_as_xyz
  1  x,y,z
loop_
 _atom_site_label
 _atom_site_occupancy
 _atom_site_fract_x
 _atom_site_fract_y
 _atom_site_fract_z
 _atom_site_thermal_displace_type
 _atom_site_B_iso_or_equiv
 _atom_site_type_symbol
Ru1 1.0000000000 0.0000000000 0.0000000000 0.0000000000  Biso 1.0 Ru
Ru2 1.0000000000 0.0000000000 0.0000000000 0.5000000000  Biso 1.0 Ru
V3 1.0000000000 0.8314871057 0.6630023975 0.2500000000  Biso 1.0 V
V4 1.0000000000 0.3369976025 0.1685128943 0.2500000000  Biso 1.0 V
V5 1.0000000000 0.8314963027 0.1685036973 0.2500000000  Biso 1.0 V
V6 1.0000000000 0.1685128943 0.3369976025 0.7500000000  Biso 1.0 V
V7 1.0000000000 0.6630023975 0.8314871057 0.7500000000  Biso 1.0 V
V8 1.0000000000 0.1685036973 0.8314963027 0.7500000000  Biso 1.0 V
Zr9 1.0000000000 0.3333143007 0.6666856993 0.0601763224  Biso 1.0 Zr
Zr10 1.0000000000 0.6666856993 0.3333143007 0.5601763224  Biso 1.0 Zr
Zr11 1.0000000000 0.6666856993 0.3333143007 0.9398236776  Biso 1.0 Zr
Zr12 1.0000000000 0.3333143007 0.6666856993 0.4398236776  Biso 1.0 Zr
