# AFLOW.org Repositories
# Ru2Sc1   [HEX,HEX,hP12] (STD_PRIM doi:10
data_Ru2Sc1
_pd_phase_name Ru2Sc1
_cell_length_a  5.1899285837
_cell_length_b  5.1899285837
_cell_length_c  8.6426373712
_cell_angle_alpha  90.0000000000
_cell_angle_beta  90.0000000000
_cell_angle_gamma  120.0000000000
_symmetry_space_group_name_H-M  'P1'
_symmetry_Int_Tables_Number  1
loop_
_symmetry_equiv_pos_site_id
_symmetry_equiv_pos_as_xyz
  1  x,y,z
loop_
 _atom_site_label
 _atom_site_occupancy
 _atom_site_fract_x
 _atom_site_fract_y
 _atom_site_fract_z
 _atom_site_thermal_displace_type
 _atom_site_B_iso_or_equiv
 _atom_site_type_symbol
Ru1 1.0000000000 0.0000000000 0.0000000000 0.0000000000  Biso 1.0 Ru
Ru2 1.0000000000 0.0000000000 0.0000000000 0.5000000000  Biso 1.0 Ru
Ru3 1.0000000000 0.8288309379 0.6576737271 0.2500000000  Biso 1.0 Ru
Ru4 1.0000000000 0.3423262729 0.1711690621 0.2500000000  Biso 1.0 Ru
Ru5 1.0000000000 0.8288355952 0.1711644048 0.2500000000  Biso 1.0 Ru
Ru6 1.0000000000 0.1711690621 0.3423262729 0.7500000000  Biso 1.0 Ru
Ru7 1.0000000000 0.6576737271 0.8288309379 0.7500000000  Biso 1.0 Ru
Ru8 1.0000000000 0.1711644048 0.8288355952 0.7500000000  Biso 1.0 Ru
Sc9 1.0000000000 0.3333283751 0.6666716249 0.0654675981  Biso 1.0 Sc
Sc10 1.0000000000 0.6666716249 0.3333283751 0.5654675981  Biso 1.0 Sc
Sc11 1.0000000000 0.6666716249 0.3333283751 0.9345324019  Biso 1.0 Sc
Sc12 1.0000000000 0.3333283751 0.6666716249 0.4345324019  Biso 1.0 Sc
