# AFLOW.org Repositories
# Ru2Tb1   [HEX,HEX,hP12] (STD_PRIM doi:10
data_Ru2Tb1
_pd_phase_name Ru2Tb1
_cell_length_a  5.2817407582
_cell_length_b  5.2817407582
_cell_length_c  9.0107891262
_cell_angle_alpha  90.0000000000
_cell_angle_beta  90.0000000000
_cell_angle_gamma  120.0000000000
_symmetry_space_group_name_H-M  'P1'
_symmetry_Int_Tables_Number  1
loop_
_symmetry_equiv_pos_site_id
_symmetry_equiv_pos_as_xyz
  1  x,y,z
loop_
 _atom_site_label
 _atom_site_occupancy
 _atom_site_fract_x
 _atom_site_fract_y
 _atom_site_fract_z
 _atom_site_thermal_displace_type
 _atom_site_B_iso_or_equiv
 _atom_site_type_symbol
Ru1 1.0000000000 0.0000000000 0.0000000000 0.0000000000  Biso 1.0 Ru
Ru2 1.0000000000 0.0000000000 0.0000000000 0.5000000000  Biso 1.0 Ru
Ru3 1.0000000000 0.6633077248 0.8316630081 0.2500000000  Biso 1.0 Ru
Ru4 1.0000000000 0.1683552833 0.8316630081 0.2500000000  Biso 1.0 Ru
Ru5 1.0000000000 0.1683497367 0.3366994735 0.2500000000  Biso 1.0 Ru
Ru6 1.0000000000 0.3366922752 0.1683369919 0.7500000000  Biso 1.0 Ru
Ru7 1.0000000000 0.8316447167 0.1683369919 0.7500000000  Biso 1.0 Ru
Ru8 1.0000000000 0.8316502633 0.6633005265 0.7500000000  Biso 1.0 Ru
Tb9 1.0000000000 0.6666609893 0.3333219787 0.0650794607  Biso 1.0 Tb
Tb10 1.0000000000 0.3333390107 0.6666780213 0.5650794607  Biso 1.0 Tb
Tb11 1.0000000000 0.3333390107 0.6666780213 0.9349205393  Biso 1.0 Tb
Tb12 1.0000000000 0.6666609893 0.3333219787 0.4349205393  Biso 1.0 Tb
