# AFLOW.org Repositories
# Ru2Zr1   [HEX,HEX,hP12] (STD_PRIM doi:10
data_Ru2Zr1
_pd_phase_name Ru2Zr1
_cell_length_a  5.1698792456
_cell_length_b  5.1698792456
_cell_length_c  8.6236358100
_cell_angle_alpha  90.0000000000
_cell_angle_beta  90.0000000000
_cell_angle_gamma  120.0000000000
_symmetry_space_group_name_H-M  'P1'
_symmetry_Int_Tables_Number  1
loop_
_symmetry_equiv_pos_site_id
_symmetry_equiv_pos_as_xyz
  1  x,y,z
loop_
 _atom_site_label
 _atom_site_occupancy
 _atom_site_fract_x
 _atom_site_fract_y
 _atom_site_fract_z
 _atom_site_thermal_displace_type
 _atom_site_B_iso_or_equiv
 _atom_site_type_symbol
Ru1 1.0000000000 0.0000000000 0.0000000000 0.0000000000  Biso 1.0 Ru
Ru2 1.0000000000 0.0000000000 0.0000000000 0.5000000000  Biso 1.0 Ru
Ru3 1.0000000000 0.8294471785 0.1705651650 0.2500000000  Biso 1.0 Ru
Ru4 1.0000000000 0.8294471785 0.6588820135 0.2500000000  Biso 1.0 Ru
Ru5 1.0000000000 0.3411225858 0.1705612929 0.2500000000  Biso 1.0 Ru
Ru6 1.0000000000 0.1705528215 0.8294348350 0.7500000000  Biso 1.0 Ru
Ru7 1.0000000000 0.1705528215 0.3411179865 0.7500000000  Biso 1.0 Ru
Ru8 1.0000000000 0.6588774142 0.8294387071 0.7500000000  Biso 1.0 Ru
Zr9 1.0000000000 0.3333373595 0.6666686798 0.0667968373  Biso 1.0 Zr
Zr10 1.0000000000 0.6666626405 0.3333313202 0.5667968373  Biso 1.0 Zr
Zr11 1.0000000000 0.6666626405 0.3333313202 0.9332031627  Biso 1.0 Zr
Zr12 1.0000000000 0.3333373595 0.6666686798 0.4332031627  Biso 1.0 Zr
