# AFLOW.org Repositories
# Ru4Sn6Y1   [BCT,BCT2,tI22] (STD_PRIM doi
data_Ru4Sn6Y1
_pd_phase_name Ru4Sn6Y1
_cell_length_a  6.9876330582
_cell_length_b  6.9876330582
_cell_length_c  6.9876330582
_cell_angle_alpha  120.3136269634
_cell_angle_beta  120.3136269634
_cell_angle_gamma  89.4576351447
_symmetry_space_group_name_H-M  'P1'
_symmetry_Int_Tables_Number  1
loop_
_symmetry_equiv_pos_site_id
_symmetry_equiv_pos_as_xyz
  1  x,y,z
loop_
 _atom_site_label
 _atom_site_occupancy
 _atom_site_fract_x
 _atom_site_fract_y
 _atom_site_fract_z
 _atom_site_thermal_displace_type
 _atom_site_B_iso_or_equiv
 _atom_site_type_symbol
Ru1 1.0000000000 0.3989616295 0.7506108913 0.0000000000  Biso 1.0 Ru
Ru2 1.0000000000 0.7506108913 0.3989616295 0.0000000000  Biso 1.0 Ru
Ru3 1.0000000000 0.2493891087 0.2493891087 0.6483507382  Biso 1.0 Ru
Ru4 1.0000000000 0.6010383705 0.6010383705 0.3516492618  Biso 1.0 Ru
Sn5 1.0000000000 0.1203133154 0.4650928480 0.0000000000  Biso 1.0 Sn
Sn6 1.0000000000 0.4650928480 0.1203133154 0.0000000000  Biso 1.0 Sn
Sn7 1.0000000000 0.5349071520 0.5349071520 0.6552204674  Biso 1.0 Sn
Sn8 1.0000000000 0.8796866846 0.8796866846 0.3447795326  Biso 1.0 Sn
Sn9 1.0000000000 0.0000000000 0.5000000000 0.5000000000  Biso 1.0 Sn
Sn10 1.0000000000 0.5000000000 0.0000000000 0.5000000000  Biso 1.0 Sn
Y11 1.0000000000 0.0000000000 0.0000000000 0.0000000000  Biso 1.0 Y
