# AFLOW.org Repositories
# S1Zn1   [HEX,HEX,hP8] (STD_PRIM doi:10.1
data_S1Zn1
_pd_phase_name S1Zn1
_cell_length_a  3.7971768495
_cell_length_b  3.7971768495
_cell_length_c  12.4245028173
_cell_angle_alpha  90.0000000000
_cell_angle_beta  90.0000000000
_cell_angle_gamma  120.0000000000
_symmetry_space_group_name_H-M  'P1'
_symmetry_Int_Tables_Number  1
loop_
_symmetry_equiv_pos_site_id
_symmetry_equiv_pos_as_xyz
  1  x,y,z
loop_
 _atom_site_label
 _atom_site_occupancy
 _atom_site_fract_x
 _atom_site_fract_y
 _atom_site_fract_z
 _atom_site_thermal_displace_type
 _atom_site_B_iso_or_equiv
 _atom_site_type_symbol
S1 1.0000000000 0.0000000000 0.0000000000 0.1873109378  Biso 1.0 S
S2 1.0000000000 0.0000000000 0.0000000000 0.6873109378  Biso 1.0 S
S3 1.0000000000 0.6666866438 0.3333732877 0.4376169730  Biso 1.0 S
S4 1.0000000000 0.3333133562 0.6666267123 0.9376169730  Biso 1.0 S
Zn5 1.0000000000 0.0000000000 0.0000000000 0.0000000000  Biso 1.0 Zn
Zn6 1.0000000000 0.0000000000 0.0000000000 0.5000204658  Biso 1.0 Zn
Zn7 1.0000000000 0.6666890509 0.3333781018 0.2500516234  Biso 1.0 Zn
Zn8 1.0000000000 0.3333109491 0.6666218982 0.7500516234  Biso 1.0 Zn
