# AFLOW.org Repositories
# S1Zn1   [HEX,HEX,hP16] (STD_PRIM doi:10.
data_S1Zn1
_pd_phase_name S1Zn1
_cell_length_a  3.7985470742
_cell_length_b  3.7985470742
_cell_length_c  24.8233538467
_cell_angle_alpha  90.0000000000
_cell_angle_beta  90.0000000000
_cell_angle_gamma  120.0000000000
_symmetry_space_group_name_H-M  'P1'
_symmetry_Int_Tables_Number  1
loop_
_symmetry_equiv_pos_site_id
_symmetry_equiv_pos_as_xyz
  1  x,y,z
loop_
 _atom_site_label
 _atom_site_occupancy
 _atom_site_fract_x
 _atom_site_fract_y
 _atom_site_fract_z
 _atom_site_thermal_displace_type
 _atom_site_B_iso_or_equiv
 _atom_site_type_symbol
S1 1.0000000000 0.0000000000 0.0000000000 0.0937891456  Biso 1.0 S
S2 1.0000000000 0.0000000000 0.0000000000 0.5937891439  Biso 1.0 S
S3 1.0000000000 0.3333650742 0.6666825371 0.2187453612  Biso 1.0 S
S4 1.0000000000 0.6666349585 0.3333174793 0.7187453611  Biso 1.0 S
S5 1.0000000000 0.3333817792 0.6666908896 0.4687851230  Biso 1.0 S
S6 1.0000000000 0.6666182206 0.3333091103 0.9687851247  Biso 1.0 S
S7 1.0000000000 0.3333645203 0.6666822601 0.8438382733  Biso 1.0 S
S8 1.0000000000 0.6666354681 0.3333177341 0.3438382723  Biso 1.0 S
Zn9 1.0000000000 0.0000000000 0.0000000000 0.0000000000  Biso 1.0 Zn
Zn10 1.0000000000 0.0000000000 0.0000000000 0.5000117217  Biso 1.0 Zn
Zn11 1.0000000000 0.3333845148 0.6666922574 0.1250200595  Biso 1.0 Zn
Zn12 1.0000000000 0.6666155126 0.3333077563 0.6250200599  Biso 1.0 Zn
Zn13 1.0000000000 0.3333679620 0.6666839810 0.3749989809  Biso 1.0 Zn
Zn14 1.0000000000 0.6666320239 0.3333160119 0.8749989800  Biso 1.0 Zn
Zn15 1.0000000000 0.3333677567 0.6666838784 0.7500113358  Biso 1.0 Zn
Zn16 1.0000000000 0.6666322203 0.3333161101 0.2500113359  Biso 1.0 Zn
