# AFLOW.org Repositories
# S2Sn0.33Ta1   [HEX,HEX,hP20] (STD_PRIM d
data_S2Sn0.33Ta1
_pd_phase_name S2Sn0.33Ta1
_cell_length_a  5.8395562385
_cell_length_b  5.8395562385
_cell_length_c  14.8424004786
_cell_angle_alpha  90.0000000000
_cell_angle_beta  90.0000000000
_cell_angle_gamma  120.0000000000
_symmetry_space_group_name_H-M  'P1'
_symmetry_Int_Tables_Number  1
loop_
_symmetry_equiv_pos_site_id
_symmetry_equiv_pos_as_xyz
  1  x,y,z
loop_
 _atom_site_label
 _atom_site_occupancy
 _atom_site_fract_x
 _atom_site_fract_y
 _atom_site_fract_z
 _atom_site_thermal_displace_type
 _atom_site_B_iso_or_equiv
 _atom_site_type_symbol
S1 1.0000000000 0.3358036218 0.3358036218 0.1059274802  Biso 1.0 S
S2 1.0000000000 0.6641944633 0.0000000000 0.1059262659  Biso 1.0 S
S3 1.0000000000 0.0000000000 0.6641944633 0.1059262659  Biso 1.0 S
S4 1.0000000000 0.6641963782 0.6641963782 0.6059274802  Biso 1.0 S
S5 1.0000000000 0.3358055367 0.0000000000 0.6059262659  Biso 1.0 S
S6 1.0000000000 0.0000000000 0.3358055367 0.6059262659  Biso 1.0 S
S7 1.0000000000 0.3358036218 0.3358036218 0.8940725198  Biso 1.0 S
S8 1.0000000000 0.0000000000 0.6641944633 0.8940737341  Biso 1.0 S
S9 1.0000000000 0.6641944633 0.0000000000 0.8940737341  Biso 1.0 S
S10 1.0000000000 0.6641963782 0.6641963782 0.3940725198  Biso 1.0 S
S11 1.0000000000 0.0000000000 0.3358055367 0.3940737341  Biso 1.0 S
S12 1.0000000000 0.3358055367 0.0000000000 0.3940737341  Biso 1.0 S
Sn13 1.0000000000 0.0000000000 0.0000000000 0.2500000000  Biso 1.0 Sn
Sn14 1.0000000000 0.0000000000 0.0000000000 0.7500000000  Biso 1.0 Sn
Ta15 1.0000000000 0.0000000000 0.0000000000 0.0000000000  Biso 1.0 Ta
Ta16 1.0000000000 0.0000000000 0.0000000000 0.5000000000  Biso 1.0 Ta
Ta17 1.0000000000 0.3333321270 0.6666660369 0.0000000000  Biso 1.0 Ta
Ta18 1.0000000000 0.6666678730 0.3333339631 0.5000000000  Biso 1.0 Ta
Ta19 1.0000000000 0.6666660369 0.3333321270 0.0000000000  Biso 1.0 Ta
Ta20 1.0000000000 0.3333339631 0.6666678730 0.5000000000  Biso 1.0 Ta
