# AFLOW.org Repositories
# S3Tb2   [ORC,ORC,oP20] (STD_PRIM doi:10.
data_S3Tb2
_pd_phase_name S3Tb2
_cell_length_a  3.8938069376
_cell_length_b  10.5045444849
_cell_length_c  10.7107791883
_cell_angle_alpha  90.0000000000
_cell_angle_beta  90.0000000000
_cell_angle_gamma  90.0000000000
_symmetry_space_group_name_H-M  'P1'
_symmetry_Int_Tables_Number  1
loop_
_symmetry_equiv_pos_site_id
_symmetry_equiv_pos_as_xyz
  1  x,y,z
loop_
 _atom_site_label
 _atom_site_occupancy
 _atom_site_fract_x
 _atom_site_fract_y
 _atom_site_fract_z
 _atom_site_thermal_displace_type
 _atom_site_B_iso_or_equiv
 _atom_site_type_symbol
S1 1.0000000000 0.7500000000 0.1266135672 0.0461214873  Biso 1.0 S
S2 1.0000000000 0.2500000000 0.6266135672 0.4538785127  Biso 1.0 S
S3 1.0000000000 0.2500000000 0.8733864328 0.9538785127  Biso 1.0 S
S4 1.0000000000 0.7500000000 0.3733864328 0.5461214873  Biso 1.0 S
S5 1.0000000000 0.7500000000 0.4448585854 0.8803455452  Biso 1.0 S
S6 1.0000000000 0.2500000000 0.9448585854 0.6196544548  Biso 1.0 S
S7 1.0000000000 0.2500000000 0.5551414146 0.1196544548  Biso 1.0 S
S8 1.0000000000 0.7500000000 0.0551414146 0.3803455452  Biso 1.0 S
S9 1.0000000000 0.7500000000 0.8028695371 0.2277663108  Biso 1.0 S
S10 1.0000000000 0.2500000000 0.3028695371 0.2722336892  Biso 1.0 S
S11 1.0000000000 0.2500000000 0.1971304629 0.7722336892  Biso 1.0 S
S12 1.0000000000 0.7500000000 0.6971304629 0.7277663108  Biso 1.0 S
Tb13 1.0000000000 0.7500000000 0.6867177998 0.9901104611  Biso 1.0 Tb
Tb14 1.0000000000 0.2500000000 0.1867177998 0.5098895389  Biso 1.0 Tb
Tb15 1.0000000000 0.2500000000 0.3132822002 0.0098895389  Biso 1.0 Tb
Tb16 1.0000000000 0.7500000000 0.8132822002 0.4901104611  Biso 1.0 Tb
Tb17 1.0000000000 0.7500000000 0.4956288061 0.3079193362  Biso 1.0 Tb
Tb18 1.0000000000 0.2500000000 0.9956288061 0.1920806638  Biso 1.0 Tb
Tb19 1.0000000000 0.2500000000 0.5043711939 0.6920806638  Biso 1.0 Tb
Tb20 1.0000000000 0.7500000000 0.0043711939 0.8079193362  Biso 1.0 Tb
