# AFLOW.org Repositories
# Si1Sr1   [ORCI,ORCI,oI40] (STD_PRIM doi:
data_Si1Sr1
_pd_phase_name Si1Sr1
_cell_length_a  11.3575623289
_cell_length_b  11.3575623289
_cell_length_c  11.3575623289
_cell_angle_alpha  155.5329036428
_cell_angle_beta  110.5971702063
_cell_angle_gamma  74.8115472489
_symmetry_space_group_name_H-M  'P1'
_symmetry_Int_Tables_Number  1
loop_
_symmetry_equiv_pos_site_id
_symmetry_equiv_pos_as_xyz
  1  x,y,z
loop_
 _atom_site_label
 _atom_site_occupancy
 _atom_site_fract_x
 _atom_site_fract_y
 _atom_site_fract_z
 _atom_site_thermal_displace_type
 _atom_site_B_iso_or_equiv
 _atom_site_type_symbol
Si1 1.0000000000 0.7768166151 0.4319797381 0.3448368769  Biso 1.0 Si
Si2 1.0000000000 0.0871428612 0.4319797381 0.6551631231  Biso 1.0 Si
Si3 1.0000000000 0.2231833849 0.5680202619 0.6551631231  Biso 1.0 Si
Si4 1.0000000000 0.9128571388 0.5680202619 0.3448368769  Biso 1.0 Si
Si5 1.0000000000 0.5508732334 0.3709690164 0.1799042169  Biso 1.0 Si
Si6 1.0000000000 0.1910647995 0.3709690164 0.8200957831  Biso 1.0 Si
Si7 1.0000000000 0.4491267666 0.6290309836 0.8200957831  Biso 1.0 Si
Si8 1.0000000000 0.8089352005 0.6290309836 0.1799042169  Biso 1.0 Si
Si9 1.0000000000 0.8571581001 0.3571581001 0.5000000000  Biso 1.0 Si
Si10 1.0000000000 0.1428418999 0.6428418999 0.5000000000  Biso 1.0 Si
Sr11 1.0000000000 0.0000000000 0.0000000000 0.0000000000  Biso 1.0 Sr
Sr12 1.0000000000 0.5000000000 0.5000000000 0.0000000000  Biso 1.0 Sr
Sr13 1.0000000000 0.2918748721 0.0000000000 0.2918748721  Biso 1.0 Sr
Sr14 1.0000000000 0.7081251279 0.0000000000 0.7081251279  Biso 1.0 Sr
Sr15 1.0000000000 0.6697675140 0.1697675140 0.5000000000  Biso 1.0 Sr
Sr16 1.0000000000 0.3302324860 0.8302324860 0.5000000000  Biso 1.0 Sr
Sr17 1.0000000000 0.3540079281 0.1883199745 0.1656879536  Biso 1.0 Sr
Sr18 1.0000000000 0.0226320209 0.1883199745 0.8343120464  Biso 1.0 Sr
Sr19 1.0000000000 0.6459920719 0.8116800255 0.8343120464  Biso 1.0 Sr
Sr20 1.0000000000 0.9773679791 0.8116800255 0.1656879536  Biso 1.0 Sr
