# AFLOW.org Repositories
# Si3Sr5   [BCT,BCT2,tI32] (STD_PRIM doi:1
data_Si3Sr5
_pd_phase_name Si3Sr5
_cell_length_a  9.7777904389
_cell_length_b  9.7777904389
_cell_length_c  9.7777904389
_cell_angle_alpha  131.2529108499
_cell_angle_beta  131.2529108499
_cell_angle_gamma  71.4115636079
_symmetry_space_group_name_H-M  'P1'
_symmetry_Int_Tables_Number  1
loop_
_symmetry_equiv_pos_site_id
_symmetry_equiv_pos_as_xyz
  1  x,y,z
loop_
 _atom_site_label
 _atom_site_occupancy
 _atom_site_fract_x
 _atom_site_fract_y
 _atom_site_fract_z
 _atom_site_thermal_displace_type
 _atom_site_B_iso_or_equiv
 _atom_site_type_symbol
Si1 1.0000000000 0.1067877875 0.3917624793 0.5000000000  Biso 1.0 Si
Si2 1.0000000000 0.8917624793 0.6067877875 0.5000000000  Biso 1.0 Si
Si3 1.0000000000 0.6067877875 0.1067877875 0.7150253082  Biso 1.0 Si
Si4 1.0000000000 0.3917624793 0.8917624793 0.2849746918  Biso 1.0 Si
Si5 1.0000000000 0.7501193699 0.7501193699 0.0000000000  Biso 1.0 Si
Si6 1.0000000000 0.2501193699 0.2501193699 0.0000000000  Biso 1.0 Si
Sr7 1.0000000000 0.1782382731 0.0373888535 0.5000000000  Biso 1.0 Sr
Sr8 1.0000000000 0.5373888535 0.6782382731 0.5000000000  Biso 1.0 Sr
Sr9 1.0000000000 0.6782382731 0.1782382731 0.1408494196  Biso 1.0 Sr
Sr10 1.0000000000 0.0373888535 0.5373888535 0.8591505804  Biso 1.0 Sr
Sr11 1.0000000000 0.4598515647 0.3208233335 0.5000000000  Biso 1.0 Sr
Sr12 1.0000000000 0.8208233335 0.9598515647 0.5000000000  Biso 1.0 Sr
Sr13 1.0000000000 0.9598515647 0.4598515647 0.1390282312  Biso 1.0 Sr
Sr14 1.0000000000 0.3208233335 0.8208233335 0.8609717688  Biso 1.0 Sr
Sr15 1.0000000000 0.9980283387 0.9980283387 0.0000000000  Biso 1.0 Sr
Sr16 1.0000000000 0.4980283387 0.4980283387 0.0000000000  Biso 1.0 Sr
