# AFLOW.org Repositories
# Si3Tc5   [BCT,BCT1,tI32] (STD_PRIM doi:1
data_Si3Tc5
_pd_phase_name Si3Tc5
_cell_length_a  7.1320663772
_cell_length_b  7.1320663772
_cell_length_c  7.1320663772
_cell_angle_alpha  96.7404425172
_cell_angle_beta  96.7404425172
_cell_angle_gamma  139.9298181195
_symmetry_space_group_name_H-M  'P1'
_symmetry_Int_Tables_Number  1
loop_
_symmetry_equiv_pos_site_id
_symmetry_equiv_pos_as_xyz
  1  x,y,z
loop_
 _atom_site_label
 _atom_site_occupancy
 _atom_site_fract_x
 _atom_site_fract_y
 _atom_site_fract_z
 _atom_site_thermal_displace_type
 _atom_site_B_iso_or_equiv
 _atom_site_type_symbol
Si1 1.0000000000 0.6688006335 0.8311993665 0.5000000000  Biso 1.0 Si
Si2 1.0000000000 0.3311993665 0.1688006335 0.5000000000  Biso 1.0 Si
Si3 1.0000000000 0.1688006335 0.6688006335 0.8376012670  Biso 1.0 Si
Si4 1.0000000000 0.8311993665 0.3311993665 0.1623987330  Biso 1.0 Si
Si5 1.0000000000 0.7500000000 0.7500000000 0.0000000000  Biso 1.0 Si
Si6 1.0000000000 0.2500000000 0.2500000000 0.0000000000  Biso 1.0 Si
Tc7 1.0000000000 0.2193550012 0.9238100712 0.1431650724  Biso 1.0 Tc
Tc8 1.0000000000 0.7806449988 0.0761899288 0.8568349276  Biso 1.0 Tc
Tc9 1.0000000000 0.0761899288 0.2193550012 0.2955449300  Biso 1.0 Tc
Tc10 1.0000000000 0.9238100712 0.7806449988 0.7044550700  Biso 1.0 Tc
Tc11 1.0000000000 0.7193550012 0.5761899288 0.2955449300  Biso 1.0 Tc
Tc12 1.0000000000 0.2806449988 0.4238100712 0.7044550700  Biso 1.0 Tc
Tc13 1.0000000000 0.5761899288 0.2806449988 0.8568349276  Biso 1.0 Tc
Tc14 1.0000000000 0.4238100712 0.7193550012 0.1431650724  Biso 1.0 Tc
Tc15 1.0000000000 0.2500000000 0.7500000000 0.5000000000  Biso 1.0 Tc
Tc16 1.0000000000 0.7500000000 0.2500000000 0.5000000000  Biso 1.0 Tc
