# AFLOW.org Repositories
# Si6Sr1   [ORCC,ORCC,oS28] (STD_PRIM doi:
data_Si6Sr1
_pd_phase_name Si6Sr1
_cell_length_a  5.6141889135
_cell_length_b  5.6141889135
_cell_length_c  11.7314002204
_cell_angle_alpha  90.0000000000
_cell_angle_beta  90.0000000000
_cell_angle_gamma  132.8393455223
_symmetry_space_group_name_H-M  'P1'
_symmetry_Int_Tables_Number  1
loop_
_symmetry_equiv_pos_site_id
_symmetry_equiv_pos_as_xyz
  1  x,y,z
loop_
 _atom_site_label
 _atom_site_occupancy
 _atom_site_fract_x
 _atom_site_fract_y
 _atom_site_fract_z
 _atom_site_thermal_displace_type
 _atom_site_B_iso_or_equiv
 _atom_site_type_symbol
Si1 1.0000000000 0.7529844304 0.2470155696 0.4623157527  Biso 1.0 Si
Si2 1.0000000000 0.2470155696 0.7529844304 0.9623157527  Biso 1.0 Si
Si3 1.0000000000 0.7529844304 0.2470155696 0.0376842473  Biso 1.0 Si
Si4 1.0000000000 0.2470155696 0.7529844304 0.5376842473  Biso 1.0 Si
Si5 1.0000000000 0.4425912043 0.5574087957 0.6474284377  Biso 1.0 Si
Si6 1.0000000000 0.5574087957 0.4425912043 0.1474284377  Biso 1.0 Si
Si7 1.0000000000 0.4425912043 0.5574087957 0.8525715623  Biso 1.0 Si
Si8 1.0000000000 0.5574087957 0.4425912043 0.3525715623  Biso 1.0 Si
Si9 1.0000000000 0.9769902748 0.0230097252 0.3993178795  Biso 1.0 Si
Si10 1.0000000000 0.0230097252 0.9769902748 0.8993178795  Biso 1.0 Si
Si11 1.0000000000 0.9769902748 0.0230097252 0.1006821205  Biso 1.0 Si
Si12 1.0000000000 0.0230097252 0.9769902748 0.6006821205  Biso 1.0 Si
Sr13 1.0000000000 0.7276257065 0.2723742935 0.7500000000  Biso 1.0 Sr
Sr14 1.0000000000 0.2723742935 0.7276257065 0.2500000000  Biso 1.0 Sr
