# AFLOW.org Repositories
# Sn1Te5Tl2   [BCT,BCT2,tI32] (STD_PRIM do
data_Sn1Te5Tl2
_pd_phase_name Sn1Te5Tl2
_cell_length_a  9.7575277914
_cell_length_b  9.7575277914
_cell_length_c  9.7575277914
_cell_angle_alpha  128.1717472382
_cell_angle_beta  128.1717472382
_cell_angle_gamma  76.3469692009
_symmetry_space_group_name_H-M  'P1'
_symmetry_Int_Tables_Number  1
loop_
_symmetry_equiv_pos_site_id
_symmetry_equiv_pos_as_xyz
  1  x,y,z
loop_
 _atom_site_label
 _atom_site_occupancy
 _atom_site_fract_x
 _atom_site_fract_y
 _atom_site_fract_z
 _atom_site_thermal_displace_type
 _atom_site_B_iso_or_equiv
 _atom_site_type_symbol
Sn1 1.0000000000 0.7500000000 0.2500000000 0.5000000000  Biso 1.0 Sn
Sn2 1.0000000000 0.2500000000 0.7500000000 0.5000000000  Biso 1.0 Sn
Te3 1.0000000000 0.1814204367 0.0521696137 0.5000000000  Biso 1.0 Te
Te4 1.0000000000 0.5521696137 0.6814204367 0.5000000000  Biso 1.0 Te
Te5 1.0000000000 0.6814204367 0.1814204367 0.1292508230  Biso 1.0 Te
Te6 1.0000000000 0.0521696137 0.5521696137 0.8707491770  Biso 1.0 Te
Te7 1.0000000000 0.9478303863 0.4478303863 0.1292508230  Biso 1.0 Te
Te8 1.0000000000 0.3185795633 0.8185795633 0.8707491770  Biso 1.0 Te
Te9 1.0000000000 0.4478303863 0.3185795633 0.5000000000  Biso 1.0 Te
Te10 1.0000000000 0.8185795633 0.9478303863 0.5000000000  Biso 1.0 Te
Te11 1.0000000000 0.5000000000 0.0000000000 0.5000000000  Biso 1.0 Te
Te12 1.0000000000 0.0000000000 0.5000000000 0.5000000000  Biso 1.0 Te
Tl13 1.0000000000 0.2500000000 0.2500000000 0.0000000000  Biso 1.0 Tl
Tl14 1.0000000000 0.7500000000 0.7500000000 0.0000000000  Biso 1.0 Tl
Tl15 1.0000000000 0.5000000000 0.5000000000 0.0000000000  Biso 1.0 Tl
Tl16 1.0000000000 0.0000000000 0.0000000000 0.0000000000  Biso 1.0 Tl
