# AFLOW.org Repositories
# Sr1Tl2   [HEX,HEX,hP6] (STD_PRIM doi:10.
data_Sr1Tl2
_pd_phase_name Sr1Tl2
_cell_length_a  5.2035927095
_cell_length_b  5.2035927095
_cell_length_c  8.3376092780
_cell_angle_alpha  90.0000000000
_cell_angle_beta  90.0000000000
_cell_angle_gamma  120.0000000000
_symmetry_space_group_name_H-M  'P1'
_symmetry_Int_Tables_Number  1
loop_
_symmetry_equiv_pos_site_id
_symmetry_equiv_pos_as_xyz
  1  x,y,z
loop_
 _atom_site_label
 _atom_site_occupancy
 _atom_site_fract_x
 _atom_site_fract_y
 _atom_site_fract_z
 _atom_site_thermal_displace_type
 _atom_site_B_iso_or_equiv
 _atom_site_type_symbol
Sr1 1.0000000000 0.0000000000 0.0000000000 0.2500000000  Biso 1.0 Sr
Sr2 1.0000000000 0.0000000000 0.0000000000 0.7500000000  Biso 1.0 Sr
Tl3 1.0000000000 0.3333181641 0.6666818359 0.4519841773  Biso 1.0 Tl
Tl4 1.0000000000 0.6666818359 0.3333181641 0.9519841773  Biso 1.0 Tl
Tl5 1.0000000000 0.6666818359 0.3333181641 0.5480158227  Biso 1.0 Tl
Tl6 1.0000000000 0.3333181641 0.6666818359 0.0480158227  Biso 1.0 Tl
