# AFLOW.org Repositories
# Te12Th7   [HEX,HEX,hP19] (STD_PRIM doi:1
data_Te12Th7
_pd_phase_name Te12Th7
_cell_length_a  12.7762537797
_cell_length_b  12.7762537797
_cell_length_c  4.4041150615
_cell_angle_alpha  90.0000000000
_cell_angle_beta  90.0000000000
_cell_angle_gamma  120.0000000000
_symmetry_space_group_name_H-M  'P1'
_symmetry_Int_Tables_Number  1
loop_
_symmetry_equiv_pos_site_id
_symmetry_equiv_pos_as_xyz
  1  x,y,z
loop_
 _atom_site_label
 _atom_site_occupancy
 _atom_site_fract_x
 _atom_site_fract_y
 _atom_site_fract_z
 _atom_site_thermal_displace_type
 _atom_site_B_iso_or_equiv
 _atom_site_type_symbol
Te1 1.0000000000 0.7799332511 0.7840585348 0.5000000000  Biso 1.0 Te
Te2 1.0000000000 0.2159414652 0.9958747163 0.5000000000  Biso 1.0 Te
Te3 1.0000000000 0.0041252837 0.2200667489 0.5000000000  Biso 1.0 Te
Te4 1.0000000000 0.4810162095 0.8699607280 0.5000000000  Biso 1.0 Te
Te5 1.0000000000 0.1300392720 0.6110554815 0.5000000000  Biso 1.0 Te
Te6 1.0000000000 0.3889445185 0.5189837905 0.5000000000  Biso 1.0 Te
Te7 1.0000000000 0.6204597565 0.4950392554 0.0000000000  Biso 1.0 Te
Te8 1.0000000000 0.5049607446 0.1254205011 0.0000000000  Biso 1.0 Te
Te9 1.0000000000 0.8745794989 0.3795402435 0.0000000000  Biso 1.0 Te
Te10 1.0000000000 0.9900332338 0.7440078793 0.0000000000  Biso 1.0 Te
Te11 1.0000000000 0.2559921207 0.2460253544 0.0000000000  Biso 1.0 Te
Te12 1.0000000000 0.7539746456 0.0099667662 0.0000000000  Biso 1.0 Te
Th13 1.0000000000 0.0000000000 0.0000000000 0.0000000000  Biso 1.0 Th
Th14 1.0000000000 0.8298781187 0.5444631971 0.5000000000  Biso 1.0 Th
Th15 1.0000000000 0.4555368029 0.2854149216 0.5000000000  Biso 1.0 Th
Th16 1.0000000000 0.7145850784 0.1701218813 0.5000000000  Biso 1.0 Th
Th17 1.0000000000 0.5572759388 0.7252356919 0.0000000000  Biso 1.0 Th
Th18 1.0000000000 0.2747643081 0.8320402469 0.0000000000  Biso 1.0 Th
Th19 1.0000000000 0.1679597531 0.4427240612 0.0000000000  Biso 1.0 Th
