# AFLOW.org Repositories
# Te1   [RHL,RHL1,hR2] (STD_PRIM doi:10.10
data_Te1
_pd_phase_name Te1
_cell_length_a  3.1988456501
_cell_length_b  3.1988456501
_cell_length_c  3.1988456501
_cell_angle_alpha  89.8703360829
_cell_angle_beta  89.8703360829
_cell_angle_gamma  89.8703360829
_symmetry_space_group_name_H-M  'P1'
_symmetry_Int_Tables_Number  1
loop_
_symmetry_equiv_pos_site_id
_symmetry_equiv_pos_as_xyz
  1  x,y,z
loop_
 _atom_site_label
 _atom_site_occupancy
 _atom_site_fract_x
 _atom_site_fract_y
 _atom_site_fract_z
 _atom_site_thermal_displace_type
 _atom_site_B_iso_or_equiv
 _atom_site_type_symbol
Te1 1.0000000000 0.5000415397 0.5000415397 0.5000415397  Biso 1.0 Te
