# AFLOW.org Repositories
# Yb3Zn11   [ORCI,ORCI,oI28] (STD_PRIM doi
data_Yb3Zn11
_pd_phase_name Yb3Zn11
_cell_length_a  8.2406837721
_cell_length_b  8.2406837721
_cell_length_c  8.2406837721
_cell_angle_alpha  148.9098169114
_cell_angle_beta  114.1560295866
_cell_angle_gamma  74.5986698267
_symmetry_space_group_name_H-M  'P1'
_symmetry_Int_Tables_Number  1
loop_
_symmetry_equiv_pos_site_id
_symmetry_equiv_pos_as_xyz
  1  x,y,z
loop_
 _atom_site_label
 _atom_site_occupancy
 _atom_site_fract_x
 _atom_site_fract_y
 _atom_site_fract_z
 _atom_site_thermal_displace_type
 _atom_site_B_iso_or_equiv
 _atom_site_type_symbol
Yb1 1.0000000000 0.0000000000 0.0000000000 0.0000000000  Biso 1.0 Yb
Yb2 1.0000000000 0.7047373916 0.7047373916 0.0000000000  Biso 1.0 Yb
Yb3 1.0000000000 0.2952626084 0.2952626084 0.0000000000  Biso 1.0 Yb
Zn4 1.0000000000 0.5000000000 0.0000000000 0.5000000000  Biso 1.0 Zn
Zn5 1.0000000000 0.6835161671 0.5000000000 0.1835161671  Biso 1.0 Zn
Zn6 1.0000000000 0.3164838329 0.5000000000 0.8164838329  Biso 1.0 Zn
Zn7 1.0000000000 0.0178417192 0.6625864905 0.3552552286  Biso 1.0 Zn
Zn8 1.0000000000 0.6926687381 0.3374135095 0.3552552286  Biso 1.0 Zn
Zn9 1.0000000000 0.3073312619 0.6625864905 0.6447447714  Biso 1.0 Zn
Zn10 1.0000000000 0.9821582808 0.3374135095 0.6447447714  Biso 1.0 Zn
Zn11 1.0000000000 0.1538835098 0.8664305848 0.2874529250  Biso 1.0 Zn
Zn12 1.0000000000 0.4210223402 0.1335694152 0.2874529250  Biso 1.0 Zn
Zn13 1.0000000000 0.5789776598 0.8664305848 0.7125470750  Biso 1.0 Zn
Zn14 1.0000000000 0.8461164902 0.1335694152 0.7125470750  Biso 1.0 Zn
