# AFLOW.org Repositories
# Ag1Al1Te2   [BCT,BCT2,tI16] (STD_PRIM do
data_Ag1Al1Te2
_pd_phase_name Ag1Al1Te2
_cell_length_a  7.5939938656
_cell_length_b  7.5939938656
_cell_length_c  7.5939938656
_cell_angle_alpha  129.6389925287
_cell_angle_beta  129.6389925287
_cell_angle_gamma  73.9845575433
_symmetry_space_group_name_H-M  'P1'
_symmetry_Int_Tables_Number  1
loop_
_symmetry_equiv_pos_site_id
_symmetry_equiv_pos_as_xyz
  1  x,y,z
loop_
 _atom_site_label
 _atom_site_occupancy
 _atom_site_fract_x
 _atom_site_fract_y
 _atom_site_fract_z
 _atom_site_thermal_displace_type
 _atom_site_B_iso_or_equiv
 _atom_site_type_symbol
Ag1 1.0000000000 0.0000000000 0.0000000000 0.0000000000  Biso 1.0 Ag
Ag2 1.0000000000 0.7500000000 0.2500000000 0.5000000000  Biso 1.0 Ag
Al3 1.0000000000 0.5000000000 0.5000000000 0.0000000000  Biso 1.0 Al
Al4 1.0000000000 0.2500000000 0.7500000000 0.5000000000  Biso 1.0 Al
Te5 1.0000000000 0.3750000000 0.4000323553 0.5250323553  Biso 1.0 Te
Te6 1.0000000000 0.8750000000 0.8499676447 0.4749676447  Biso 1.0 Te
Te7 1.0000000000 0.5999676447 0.1250000000 0.9749676447  Biso 1.0 Te
Te8 1.0000000000 0.1500323553 0.6250000000 0.0250323553  Biso 1.0 Te
