# AFLOW.org Repositories
# Ag1Er1Ge1   [HEX,HEX,hP9] (STD_PRIM doi:
data_Ag1Er1Ge1
_pd_phase_name Ag1Er1Ge1
_cell_length_a  7.1530785081
_cell_length_b  7.1530785081
_cell_length_c  4.1982225573
_cell_angle_alpha  90.0000000000
_cell_angle_beta  90.0000000000
_cell_angle_gamma  120.0000000000
_symmetry_space_group_name_H-M  'P1'
_symmetry_Int_Tables_Number  1
loop_
_symmetry_equiv_pos_site_id
_symmetry_equiv_pos_as_xyz
  1  x,y,z
loop_
 _atom_site_label
 _atom_site_occupancy
 _atom_site_fract_x
 _atom_site_fract_y
 _atom_site_fract_z
 _atom_site_thermal_displace_type
 _atom_site_B_iso_or_equiv
 _atom_site_type_symbol
Ag1 1.0000000000 0.2491298668 0.0000000000 0.0000000000  Biso 1.0 Ag
Ag2 1.0000000000 0.0000000000 0.2491298668 0.0000000000  Biso 1.0 Ag
Ag3 1.0000000000 0.7507840626 0.7507840626 0.0000000000  Biso 1.0 Ag
Er4 1.0000000000 0.5828704989 0.0000000000 0.5000000000  Biso 1.0 Er
Er5 1.0000000000 0.0000000000 0.5828704989 0.5000000000  Biso 1.0 Er
Er6 1.0000000000 0.4171277974 0.4171277974 0.5000000000  Biso 1.0 Er
Ge7 1.0000000000 0.3333688359 0.6665284458 0.0000000000  Biso 1.0 Ge
Ge8 1.0000000000 0.6665284458 0.3333688359 0.0000000000  Biso 1.0 Ge
Ge9 1.0000000000 0.0000000000 0.0000000000 0.5000000000  Biso 1.0 Ge
