# AFLOW.org Repositories
# Ag1Ge1La1   [HEX,HEX,hP6] (STD_PRIM doi:
data_Ag1Ge1La1
_pd_phase_name Ag1Ge1La1
_cell_length_a  4.6340760162
_cell_length_b  4.6340760162
_cell_length_c  7.9793137040
_cell_angle_alpha  90.0000000000
_cell_angle_beta  90.0000000000
_cell_angle_gamma  120.0000000000
_symmetry_space_group_name_H-M  'P1'
_symmetry_Int_Tables_Number  1
loop_
_symmetry_equiv_pos_site_id
_symmetry_equiv_pos_as_xyz
  1  x,y,z
loop_
 _atom_site_label
 _atom_site_occupancy
 _atom_site_fract_x
 _atom_site_fract_y
 _atom_site_fract_z
 _atom_site_thermal_displace_type
 _atom_site_B_iso_or_equiv
 _atom_site_type_symbol
Ag1 1.0000000000 0.6666697818 0.3333395636 0.0049206178  Biso 1.0 Ag
Ag2 1.0000000000 0.3333302182 0.6666604364 0.5049206178  Biso 1.0 Ag
Ge3 1.0000000000 0.6666649364 0.3333298728 0.4605868574  Biso 1.0 Ge
Ge4 1.0000000000 0.3333350636 0.6666701272 0.9605868574  Biso 1.0 Ge
La5 1.0000000000 0.0000000000 0.0000000000 0.2440925248  Biso 1.0 La
La6 1.0000000000 0.0000000000 0.0000000000 0.7440925248  Biso 1.0 La
