# AFLOW.org Repositories
# Ag1In5Se8   [TET,TET,tP14] (STD_PRIM doi
data_Ag1In5Se8
_pd_phase_name Ag1In5Se8
_cell_length_a  5.8661244102
_cell_length_b  5.8661244102
_cell_length_c  12.1066564462
_cell_angle_alpha  90.0000000000
_cell_angle_beta  90.0000000000
_cell_angle_gamma  90.0000000000
_symmetry_space_group_name_H-M  'P1'
_symmetry_Int_Tables_Number  1
loop_
_symmetry_equiv_pos_site_id
_symmetry_equiv_pos_as_xyz
  1  x,y,z
loop_
 _atom_site_label
 _atom_site_occupancy
 _atom_site_fract_x
 _atom_site_fract_y
 _atom_site_fract_z
 _atom_site_thermal_displace_type
 _atom_site_B_iso_or_equiv
 _atom_site_type_symbol
Ag1 1.0000000000 0.0000000000 0.0000000000 0.5000000000  Biso 1.0 Ag
In2 1.0000000000 0.0000000000 0.5000000000 0.2530645290  Biso 1.0 In
In3 1.0000000000 0.5000000000 0.0000000000 0.7469354710  Biso 1.0 In
In4 1.0000000000 0.0000000000 0.5000000000 0.7469354710  Biso 1.0 In
In5 1.0000000000 0.5000000000 0.0000000000 0.2530645290  Biso 1.0 In
In6 1.0000000000 0.5000000000 0.5000000000 0.0000000000  Biso 1.0 In
Se7 1.0000000000 0.2274047114 0.2274047114 0.1121672072  Biso 1.0 Se
Se8 1.0000000000 0.7725952886 0.7725952886 0.1121672072  Biso 1.0 Se
Se9 1.0000000000 0.2274047114 0.7725952886 0.8878327928  Biso 1.0 Se
Se10 1.0000000000 0.7725952886 0.2274047114 0.8878327928  Biso 1.0 Se
Se11 1.0000000000 0.7262069207 0.7262069207 0.6209489702  Biso 1.0 Se
Se12 1.0000000000 0.2737930793 0.2737930793 0.6209489702  Biso 1.0 Se
Se13 1.0000000000 0.7262069207 0.2737930793 0.3790510298  Biso 1.0 Se
Se14 1.0000000000 0.2737930793 0.7262069207 0.3790510298  Biso 1.0 Se
