# AFLOW.org Repositories
# Ag1In2Na3   [FCC,FCC,cF96] (STD_PRIM doi
data_Ag1In2Na3
_pd_phase_name Ag1In2Na3
_cell_length_a  9.7898349536
_cell_length_b  9.7898349536
_cell_length_c  9.7898349536
_cell_angle_alpha  60.0000000000
_cell_angle_beta  60.0000000000
_cell_angle_gamma  60.0000000000
_symmetry_space_group_name_H-M  'P1'
_symmetry_Int_Tables_Number  1
loop_
_symmetry_equiv_pos_site_id
_symmetry_equiv_pos_as_xyz
  1  x,y,z
loop_
 _atom_site_label
 _atom_site_occupancy
 _atom_site_fract_x
 _atom_site_fract_y
 _atom_site_fract_z
 _atom_site_thermal_displace_type
 _atom_site_B_iso_or_equiv
 _atom_site_type_symbol
Ag1 1.0000000000 0.0000000000 0.0000000000 0.0000000000  Biso 1.0 Ag
Ag2 1.0000000000 0.0000000000 0.0000000000 0.5000000000  Biso 1.0 Ag
Ag3 1.0000000000 0.0000000000 0.5000000000 0.5000000000  Biso 1.0 Ag
Ag4 1.0000000000 0.5000000000 0.0000000000 0.5000000000  Biso 1.0 Ag
In5 1.0000000000 0.7923184296 0.7923184296 0.6230447112  Biso 1.0 In
In6 1.0000000000 0.7923184296 0.7923184296 0.2923184296  Biso 1.0 In
In7 1.0000000000 0.7923184296 0.1230447112 0.2923184296  Biso 1.0 In
In8 1.0000000000 0.1230447112 0.7923184296 0.2923184296  Biso 1.0 In
In9 1.0000000000 0.2076815704 0.2076815704 0.7076815704  Biso 1.0 In
In10 1.0000000000 0.2076815704 0.2076815704 0.3769552888  Biso 1.0 In
In11 1.0000000000 0.2076815704 0.8769552888 0.7076815704  Biso 1.0 In
In12 1.0000000000 0.8769552888 0.2076815704 0.7076815704  Biso 1.0 In
Na13 1.0000000000 0.1727478096 0.5772521904 0.6727478096  Biso 1.0 Na
Na14 1.0000000000 0.5772521904 0.1727478096 0.0772521904  Biso 1.0 Na
Na15 1.0000000000 0.5772521904 0.1727478096 0.6727478096  Biso 1.0 Na
Na16 1.0000000000 0.1727478096 0.5772521904 0.0772521904  Biso 1.0 Na
Na17 1.0000000000 0.5772521904 0.5772521904 0.6727478096  Biso 1.0 Na
Na18 1.0000000000 0.1727478096 0.1727478096 0.0772521904  Biso 1.0 Na
Na19 1.0000000000 0.8272521904 0.4227478096 0.9227478096  Biso 1.0 Na
Na20 1.0000000000 0.4227478096 0.8272521904 0.3272521904  Biso 1.0 Na
Na21 1.0000000000 0.4227478096 0.8272521904 0.9227478096  Biso 1.0 Na
Na22 1.0000000000 0.8272521904 0.4227478096 0.3272521904  Biso 1.0 Na
Na23 1.0000000000 0.4227478096 0.4227478096 0.3272521904  Biso 1.0 Na
Na24 1.0000000000 0.8272521904 0.8272521904 0.9227478096  Biso 1.0 Na
