# AFLOW.org Repositories
# Ag1Te2Y1   [TET,TET,tP8] (STD_PRIM doi:1
data_Ag1Te2Y1
_pd_phase_name Ag1Te2Y1
_cell_length_a  7.2395893531
_cell_length_b  7.2395893531
_cell_length_c  4.6270847733
_cell_angle_alpha  90.0000000000
_cell_angle_beta  90.0000000000
_cell_angle_gamma  90.0000000000
_symmetry_space_group_name_H-M  'P1'
_symmetry_Int_Tables_Number  1
loop_
_symmetry_equiv_pos_site_id
_symmetry_equiv_pos_as_xyz
  1  x,y,z
loop_
 _atom_site_label
 _atom_site_occupancy
 _atom_site_fract_x
 _atom_site_fract_y
 _atom_site_fract_z
 _atom_site_thermal_displace_type
 _atom_site_B_iso_or_equiv
 _atom_site_type_symbol
Ag1 1.0000000000 0.0000000000 0.0000000000 0.0000000000  Biso 1.0 Ag
Ag2 1.0000000000 0.5000000000 0.5000000000 0.0000000000  Biso 1.0 Ag
Te3 1.0000000000 0.7979507826 0.2979507826 0.2844431626  Biso 1.0 Te
Te4 1.0000000000 0.2020492174 0.7020492174 0.2844431626  Biso 1.0 Te
Te5 1.0000000000 0.2979507826 0.2020492174 0.7155568374  Biso 1.0 Te
Te6 1.0000000000 0.7020492174 0.7979507826 0.7155568374  Biso 1.0 Te
Y7 1.0000000000 0.0000000000 0.5000000000 0.7942305725  Biso 1.0 Y
Y8 1.0000000000 0.5000000000 0.0000000000 0.2057694275  Biso 1.0 Y
