# AFLOW.org Repositories
# Ag2Ba1Te2   [ORC,ORC,oP20] (STD_PRIM doi
data_Ag2Ba1Te2
_pd_phase_name Ag2Ba1Te2
_cell_length_a  4.6694641290
_cell_length_b  11.1250952873
_cell_length_c  11.9966469648
_cell_angle_alpha  90.0000000000
_cell_angle_beta  90.0000000000
_cell_angle_gamma  90.0000000000
_symmetry_space_group_name_H-M  'P1'
_symmetry_Int_Tables_Number  1
loop_
_symmetry_equiv_pos_site_id
_symmetry_equiv_pos_as_xyz
  1  x,y,z
loop_
 _atom_site_label
 _atom_site_occupancy
 _atom_site_fract_x
 _atom_site_fract_y
 _atom_site_fract_z
 _atom_site_thermal_displace_type
 _atom_site_B_iso_or_equiv
 _atom_site_type_symbol
Ag1 1.0000000000 0.2500000000 0.0580910642 0.9150891945  Biso 1.0 Ag
Ag2 1.0000000000 0.7500000000 0.4419089358 0.4150891945  Biso 1.0 Ag
Ag3 1.0000000000 0.7500000000 0.9419089358 0.0849108055  Biso 1.0 Ag
Ag4 1.0000000000 0.2500000000 0.5580910642 0.5849108055  Biso 1.0 Ag
Ag5 1.0000000000 0.7500000000 0.4374061710 0.9522955276  Biso 1.0 Ag
Ag6 1.0000000000 0.2500000000 0.0625938290 0.4522955276  Biso 1.0 Ag
Ag7 1.0000000000 0.2500000000 0.5625938290 0.0477044724  Biso 1.0 Ag
Ag8 1.0000000000 0.7500000000 0.9374061710 0.5477044724  Biso 1.0 Ag
Ba9 1.0000000000 0.7500000000 0.2457370053 0.6954162732  Biso 1.0 Ba
Ba10 1.0000000000 0.2500000000 0.2542629947 0.1954162732  Biso 1.0 Ba
Ba11 1.0000000000 0.2500000000 0.7542629947 0.3045837268  Biso 1.0 Ba
Ba12 1.0000000000 0.7500000000 0.7457370053 0.8045837268  Biso 1.0 Ba
Te13 1.0000000000 0.2500000000 0.4813362505 0.8130086800  Biso 1.0 Te
Te14 1.0000000000 0.7500000000 0.0186637495 0.3130086800  Biso 1.0 Te
Te15 1.0000000000 0.7500000000 0.5186637495 0.1869913200  Biso 1.0 Te
Te16 1.0000000000 0.2500000000 0.9813362505 0.6869913200  Biso 1.0 Te
Te17 1.0000000000 0.7500000000 0.1832875933 0.9832283534  Biso 1.0 Te
Te18 1.0000000000 0.2500000000 0.3167124067 0.4832283534  Biso 1.0 Te
Te19 1.0000000000 0.2500000000 0.8167124067 0.0167716466  Biso 1.0 Te
Te20 1.0000000000 0.7500000000 0.6832875933 0.5167716466  Biso 1.0 Te
