# AFLOW.org Repositories
# Al16Rh7Sc6   [FCC,FCC,cF116] (STD_PRIM d
data_Al16Rh7Sc6
_pd_phase_name Al16Rh7Sc6
_cell_length_a  8.7539244375
_cell_length_b  8.7539244375
_cell_length_c  8.7539244375
_cell_angle_alpha  60.0000000000
_cell_angle_beta  60.0000000000
_cell_angle_gamma  60.0000000000
_symmetry_space_group_name_H-M  'P1'
_symmetry_Int_Tables_Number  1
loop_
_symmetry_equiv_pos_site_id
_symmetry_equiv_pos_as_xyz
  1  x,y,z
loop_
 _atom_site_label
 _atom_site_occupancy
 _atom_site_fract_x
 _atom_site_fract_y
 _atom_site_fract_z
 _atom_site_thermal_displace_type
 _atom_site_B_iso_or_equiv
 _atom_site_type_symbol
Al1 1.0000000000 0.3585915353 0.8804694882 0.8804694882  Biso 1.0 Al
Al2 1.0000000000 0.8804694882 0.3585915353 0.8804694882  Biso 1.0 Al
Al3 1.0000000000 0.8804694882 0.8804694882 0.8804694882  Biso 1.0 Al
Al4 1.0000000000 0.8804694882 0.8804694882 0.3585915353  Biso 1.0 Al
Al5 1.0000000000 0.1195305118 0.6414084647 0.1195305118  Biso 1.0 Al
Al6 1.0000000000 0.6414084647 0.1195305118 0.1195305118  Biso 1.0 Al
Al7 1.0000000000 0.1195305118 0.1195305118 0.1195305118  Biso 1.0 Al
Al8 1.0000000000 0.1195305118 0.1195305118 0.6414084647  Biso 1.0 Al
Al9 1.0000000000 0.9962050832 0.6679316389 0.6679316389  Biso 1.0 Al
Al10 1.0000000000 0.6679316389 0.9962050832 0.6679316389  Biso 1.0 Al
Al11 1.0000000000 0.6679316389 0.6679316389 0.6679316389  Biso 1.0 Al
Al12 1.0000000000 0.6679316389 0.6679316389 0.9962050832  Biso 1.0 Al
Al13 1.0000000000 0.3320683611 0.0037949168 0.3320683611  Biso 1.0 Al
Al14 1.0000000000 0.0037949168 0.3320683611 0.3320683611  Biso 1.0 Al
Al15 1.0000000000 0.3320683611 0.3320683611 0.3320683611  Biso 1.0 Al
Al16 1.0000000000 0.3320683611 0.3320683611 0.0037949168  Biso 1.0 Al
Rh17 1.0000000000 0.0000000000 0.0000000000 0.0000000000  Biso 1.0 Rh
Rh18 1.0000000000 0.5000000000 0.0000000000 0.5000000000  Biso 1.0 Rh
Rh19 1.0000000000 0.0000000000 0.5000000000 0.0000000000  Biso 1.0 Rh
Rh20 1.0000000000 0.5000000000 0.0000000000 0.0000000000  Biso 1.0 Rh
Rh21 1.0000000000 0.0000000000 0.5000000000 0.5000000000  Biso 1.0 Rh
Rh22 1.0000000000 0.5000000000 0.5000000000 0.0000000000  Biso 1.0 Rh
Rh23 1.0000000000 0.0000000000 0.0000000000 0.5000000000  Biso 1.0 Rh
Sc24 1.0000000000 0.2975512382 0.7024487618 0.2975512382  Biso 1.0 Sc
Sc25 1.0000000000 0.7024487618 0.2975512382 0.7024487618  Biso 1.0 Sc
Sc26 1.0000000000 0.2975512382 0.7024487618 0.7024487618  Biso 1.0 Sc
Sc27 1.0000000000 0.7024487618 0.2975512382 0.2975512382  Biso 1.0 Sc
Sc28 1.0000000000 0.2975512382 0.2975512382 0.7024487618  Biso 1.0 Sc
Sc29 1.0000000000 0.7024487618 0.7024487618 0.2975512382  Biso 1.0 Sc
