# AFLOW.org Repositories
# Al1N3V4   [HEX,HEX,hP16] (STD_PRIM doi:1
data_Al1N3V4
_pd_phase_name Al1N3V4
_cell_length_a  2.9484156352
_cell_length_b  2.9484156352
_cell_length_c  22.6362300394
_cell_angle_alpha  90.0000000000
_cell_angle_beta  90.0000000000
_cell_angle_gamma  120.0000000000
_symmetry_space_group_name_H-M  'P1'
_symmetry_Int_Tables_Number  1
loop_
_symmetry_equiv_pos_site_id
_symmetry_equiv_pos_as_xyz
  1  x,y,z
loop_
 _atom_site_label
 _atom_site_occupancy
 _atom_site_fract_x
 _atom_site_fract_y
 _atom_site_fract_z
 _atom_site_thermal_displace_type
 _atom_site_B_iso_or_equiv
 _atom_site_type_symbol
Al1 1.0000000000 0.3333442932 0.6666721466 0.2500000000  Biso 1.0 Al
Al2 1.0000000000 0.6666557068 0.3333278534 0.7500000000  Biso 1.0 Al
N3 1.0000000000 0.0000000000 0.0000000000 0.0000000000  Biso 1.0 N
N4 1.0000000000 0.0000000000 0.0000000000 0.5000000000  Biso 1.0 N
N5 1.0000000000 0.6666720771 0.3333360386 0.1071978538  Biso 1.0 N
N6 1.0000000000 0.3333279229 0.6666639614 0.6071978538  Biso 1.0 N
N7 1.0000000000 0.3333279229 0.6666639614 0.8928021462  Biso 1.0 N
N8 1.0000000000 0.6666720771 0.3333360386 0.3928021462  Biso 1.0 N
V9 1.0000000000 0.3333363765 0.6666681882 0.0550660301  Biso 1.0 V
V10 1.0000000000 0.6666636235 0.3333318118 0.5550660301  Biso 1.0 V
V11 1.0000000000 0.6666636235 0.3333318118 0.9449339699  Biso 1.0 V
V12 1.0000000000 0.3333363765 0.6666681882 0.4449339699  Biso 1.0 V
V13 1.0000000000 0.0000000000 0.0000000000 0.1520865659  Biso 1.0 V
V14 1.0000000000 0.0000000000 0.0000000000 0.6520865659  Biso 1.0 V
V15 1.0000000000 0.0000000000 0.0000000000 0.8479134341  Biso 1.0 V
V16 1.0000000000 0.0000000000 0.0000000000 0.3479134341  Biso 1.0 V
