# AFLOW.org Repositories
# Al1P1   [HEX,HEX,hP4] (STD_PRIM doi:10.1
data_Al1P1
_pd_phase_name Al1P1
_cell_length_a  3.8857914869
_cell_length_b  3.8857914869
_cell_length_c  6.3799397768
_cell_angle_alpha  90.0000000000
_cell_angle_beta  90.0000000000
_cell_angle_gamma  120.0000000000
_symmetry_space_group_name_H-M  'P1'
_symmetry_Int_Tables_Number  1
loop_
_symmetry_equiv_pos_site_id
_symmetry_equiv_pos_as_xyz
  1  x,y,z
loop_
 _atom_site_label
 _atom_site_occupancy
 _atom_site_fract_x
 _atom_site_fract_y
 _atom_site_fract_z
 _atom_site_thermal_displace_type
 _atom_site_B_iso_or_equiv
 _atom_site_type_symbol
Al1 1.0000000000 0.3333198679 0.6666801321 0.0000000000  Biso 1.0 Al
Al2 1.0000000000 0.6666801321 0.3333198679 0.5001189450  Biso 1.0 Al
P3 1.0000000000 0.3333202619 0.6666797381 0.3748810550  Biso 1.0 P
P4 1.0000000000 0.6666797381 0.3333202619 0.8748810550  Biso 1.0 P
