# AFLOW.org Repositories
# Al1Pd5   [ORC,ORC,oP24] (STD_PRIM doi:10
data_Al1Pd5
_pd_phase_name Al1Pd5
_cell_length_a  4.0161458259
_cell_length_b  8.1795293411
_cell_length_c  10.8451379609
_cell_angle_alpha  90.0000000000
_cell_angle_beta  90.0000000000
_cell_angle_gamma  90.0000000000
_symmetry_space_group_name_H-M  'P1'
_symmetry_Int_Tables_Number  1
loop_
_symmetry_equiv_pos_site_id
_symmetry_equiv_pos_as_xyz
  1  x,y,z
loop_
 _atom_site_label
 _atom_site_occupancy
 _atom_site_fract_x
 _atom_site_fract_y
 _atom_site_fract_z
 _atom_site_thermal_displace_type
 _atom_site_B_iso_or_equiv
 _atom_site_type_symbol
Al1 1.0000000000 0.7500000000 0.1191148114 0.0822729957  Biso 1.0 Al
Al2 1.0000000000 0.2500000000 0.6191148114 0.4177270043  Biso 1.0 Al
Al3 1.0000000000 0.2500000000 0.8808851886 0.9177270043  Biso 1.0 Al
Al4 1.0000000000 0.7500000000 0.3808851886 0.5822729957  Biso 1.0 Al
Pd5 1.0000000000 0.7500000000 0.7878671434 0.2960875980  Biso 1.0 Pd
Pd6 1.0000000000 0.2500000000 0.2878671434 0.2039124020  Biso 1.0 Pd
Pd7 1.0000000000 0.2500000000 0.2121328566 0.7039124020  Biso 1.0 Pd
Pd8 1.0000000000 0.7500000000 0.7121328566 0.7960875980  Biso 1.0 Pd
Pd9 1.0000000000 0.7500000000 0.7858035592 0.0414814002  Biso 1.0 Pd
Pd10 1.0000000000 0.2500000000 0.2858035592 0.4585185998  Biso 1.0 Pd
Pd11 1.0000000000 0.2500000000 0.2141964408 0.9585185998  Biso 1.0 Pd
Pd12 1.0000000000 0.7500000000 0.7141964408 0.5414814002  Biso 1.0 Pd
Pd13 1.0000000000 0.7500000000 0.4590678344 0.3388790318  Biso 1.0 Pd
Pd14 1.0000000000 0.2500000000 0.9590678344 0.1611209682  Biso 1.0 Pd
Pd15 1.0000000000 0.2500000000 0.5409321656 0.6611209682  Biso 1.0 Pd
Pd16 1.0000000000 0.7500000000 0.0409321656 0.8388790318  Biso 1.0 Pd
Pd17 1.0000000000 0.7500000000 0.4296432988 0.0699989853  Biso 1.0 Pd
Pd18 1.0000000000 0.2500000000 0.9296432988 0.4300010147  Biso 1.0 Pd
Pd19 1.0000000000 0.2500000000 0.5703567012 0.9300010147  Biso 1.0 Pd
Pd20 1.0000000000 0.7500000000 0.0703567012 0.5699989853  Biso 1.0 Pd
Pd21 1.0000000000 0.7500000000 0.1175937060 0.3158444473  Biso 1.0 Pd
Pd22 1.0000000000 0.2500000000 0.6175937060 0.1841555527  Biso 1.0 Pd
Pd23 1.0000000000 0.2500000000 0.8824062940 0.6841555527  Biso 1.0 Pd
Pd24 1.0000000000 0.7500000000 0.3824062940 0.8158444473  Biso 1.0 Pd
