# AFLOW.org Repositories
# Al1Se2Tl1   [BCT,BCT1,tI16] (STD_PRIM do
data_Al1Se2Tl1
_pd_phase_name Al1Se2Tl1
_cell_length_a  6.6486659064
_cell_length_b  6.6486659064
_cell_length_c  6.6486659064
_cell_angle_alpha  103.4975322639
_cell_angle_beta  103.4975322639
_cell_angle_gamma  122.2214501489
_symmetry_space_group_name_H-M  'P1'
_symmetry_Int_Tables_Number  1
loop_
_symmetry_equiv_pos_site_id
_symmetry_equiv_pos_as_xyz
  1  x,y,z
loop_
 _atom_site_label
 _atom_site_occupancy
 _atom_site_fract_x
 _atom_site_fract_y
 _atom_site_fract_z
 _atom_site_thermal_displace_type
 _atom_site_B_iso_or_equiv
 _atom_site_type_symbol
Al1 1.0000000000 0.2500000000 0.7500000000 0.5000000000  Biso 1.0 Al
Al2 1.0000000000 0.7500000000 0.2500000000 0.5000000000  Biso 1.0 Al
Se3 1.0000000000 0.6577363722 0.8422636278 0.5000000000  Biso 1.0 Se
Se4 1.0000000000 0.3422636278 0.1577363722 0.5000000000  Biso 1.0 Se
Se5 1.0000000000 0.1577363722 0.6577363722 0.8154727443  Biso 1.0 Se
Se6 1.0000000000 0.8422636278 0.3422636278 0.1845272557  Biso 1.0 Se
Tl7 1.0000000000 0.7500000000 0.7500000000 0.0000000000  Biso 1.0 Tl
Tl8 1.0000000000 0.2500000000 0.2500000000 0.0000000000  Biso 1.0 Tl
