# AFLOW.org Repositories
# Al1Ta2   [TET,TET,tP30] (STD_PRIM doi:10
data_Al1Ta2
_pd_phase_name Al1Ta2
_cell_length_a  9.9847715652
_cell_length_b  9.9847715652
_cell_length_c  5.4586686607
_cell_angle_alpha  90.0000000000
_cell_angle_beta  90.0000000000
_cell_angle_gamma  90.0000000000
_symmetry_space_group_name_H-M  'P1'
_symmetry_Int_Tables_Number  1
loop_
_symmetry_equiv_pos_site_id
_symmetry_equiv_pos_as_xyz
  1  x,y,z
loop_
 _atom_site_label
 _atom_site_occupancy
 _atom_site_fract_x
 _atom_site_fract_y
 _atom_site_fract_z
 _atom_site_thermal_displace_type
 _atom_site_B_iso_or_equiv
 _atom_site_type_symbol
Al1 1.0000000000 0.0000000000 0.0000000000 0.0000000000  Biso 1.0 Al
Al2 1.0000000000 0.5000000000 0.5000000000 0.5000000000  Biso 1.0 Al
Al3 1.0000000000 0.4652074372 0.1354390750 0.0000000000  Biso 1.0 Al
Al4 1.0000000000 0.5347925628 0.8645609250 0.0000000000  Biso 1.0 Al
Al5 1.0000000000 0.3645609250 0.9652074372 0.5000000000  Biso 1.0 Al
Al6 1.0000000000 0.6354390750 0.0347925628 0.5000000000  Biso 1.0 Al
Al7 1.0000000000 0.0347925628 0.6354390750 0.5000000000  Biso 1.0 Al
Al8 1.0000000000 0.9652074372 0.3645609250 0.5000000000  Biso 1.0 Al
Al9 1.0000000000 0.1354390750 0.4652074372 0.0000000000  Biso 1.0 Al
Al10 1.0000000000 0.8645609250 0.5347925628 0.0000000000  Biso 1.0 Al
Ta11 1.0000000000 0.4020580831 0.4020580831 0.0000000000  Biso 1.0 Ta
Ta12 1.0000000000 0.5979419169 0.5979419169 0.0000000000  Biso 1.0 Ta
Ta13 1.0000000000 0.0979419169 0.9020580831 0.5000000000  Biso 1.0 Ta
Ta14 1.0000000000 0.9020580831 0.0979419169 0.5000000000  Biso 1.0 Ta
Ta15 1.0000000000 0.2631210685 0.9377188226 0.0000000000  Biso 1.0 Ta
Ta16 1.0000000000 0.7368789315 0.0622811774 0.0000000000  Biso 1.0 Ta
Ta17 1.0000000000 0.5622811774 0.7631210685 0.5000000000  Biso 1.0 Ta
Ta18 1.0000000000 0.4377188226 0.2368789315 0.5000000000  Biso 1.0 Ta
Ta19 1.0000000000 0.2368789315 0.4377188226 0.5000000000  Biso 1.0 Ta
Ta20 1.0000000000 0.7631210685 0.5622811774 0.5000000000  Biso 1.0 Ta
Ta21 1.0000000000 0.9377188226 0.2631210685 0.0000000000  Biso 1.0 Ta
Ta22 1.0000000000 0.0622811774 0.7368789315 0.0000000000  Biso 1.0 Ta
Ta23 1.0000000000 0.1881814350 0.1881814350 0.2485185724  Biso 1.0 Ta
Ta24 1.0000000000 0.8118185650 0.8118185650 0.2485185724  Biso 1.0 Ta
Ta25 1.0000000000 0.3118185650 0.6881814350 0.7485185724  Biso 1.0 Ta
Ta26 1.0000000000 0.6881814350 0.3118185650 0.7485185724  Biso 1.0 Ta
Ta27 1.0000000000 0.3118185650 0.6881814350 0.2514814276  Biso 1.0 Ta
Ta28 1.0000000000 0.6881814350 0.3118185650 0.2514814276  Biso 1.0 Ta
Ta29 1.0000000000 0.1881814350 0.1881814350 0.7514814276  Biso 1.0 Ta
Ta30 1.0000000000 0.8118185650 0.8118185650 0.7514814276  Biso 1.0 Ta
