# AFLOW.org Repositories
# Al2Er1Ni1   [ORCC,ORCC,oS16] (STD_PRIM d
data_Al2Er1Ni1
_pd_phase_name Al2Er1Ni1
_cell_length_a  5.4007122180
_cell_length_b  5.4007122180
_cell_length_c  6.8520348988
_cell_angle_alpha  90.0000000000
_cell_angle_beta  90.0000000000
_cell_angle_gamma  135.7788362938
_symmetry_space_group_name_H-M  'P1'
_symmetry_Int_Tables_Number  1
loop_
_symmetry_equiv_pos_site_id
_symmetry_equiv_pos_as_xyz
  1  x,y,z
loop_
 _atom_site_label
 _atom_site_occupancy
 _atom_site_fract_x
 _atom_site_fract_y
 _atom_site_fract_z
 _atom_site_thermal_displace_type
 _atom_site_B_iso_or_equiv
 _atom_site_type_symbol
Al1 1.0000000000 0.6541428920 0.3458571080 0.9468156763  Biso 1.0 Al
Al2 1.0000000000 0.3458571080 0.6541428920 0.4468156763  Biso 1.0 Al
Al3 1.0000000000 0.6541428920 0.3458571080 0.5531843237  Biso 1.0 Al
Al4 1.0000000000 0.3458571080 0.6541428920 0.0531843237  Biso 1.0 Al
Er5 1.0000000000 0.9388821910 0.0611178090 0.7500000000  Biso 1.0 Er
Er6 1.0000000000 0.0611178090 0.9388821910 0.2500000000  Biso 1.0 Er
Ni7 1.0000000000 0.2142229976 0.7857770024 0.7500000000  Biso 1.0 Ni
Ni8 1.0000000000 0.7857770024 0.2142229976 0.2500000000  Biso 1.0 Ni
