# AFLOW.org Repositories
# Al2Er3   [TET,TET,tP20] (STD_PRIM doi:10
data_Al2Er3
_pd_phase_name Al2Er3
_cell_length_a  8.1626366666
_cell_length_b  8.1626366666
_cell_length_c  7.5333747109
_cell_angle_alpha  90.0000000000
_cell_angle_beta  90.0000000000
_cell_angle_gamma  90.0000000000
_symmetry_space_group_name_H-M  'P1'
_symmetry_Int_Tables_Number  1
loop_
_symmetry_equiv_pos_site_id
_symmetry_equiv_pos_as_xyz
  1  x,y,z
loop_
 _atom_site_label
 _atom_site_occupancy
 _atom_site_fract_x
 _atom_site_fract_y
 _atom_site_fract_z
 _atom_site_thermal_displace_type
 _atom_site_B_iso_or_equiv
 _atom_site_type_symbol
Al1 1.0000000000 0.3806894729 0.3806894729 0.1971058127  Biso 1.0 Al
Al2 1.0000000000 0.6193105271 0.6193105271 0.1971058127  Biso 1.0 Al
Al3 1.0000000000 0.1193105271 0.8806894729 0.6971058127  Biso 1.0 Al
Al4 1.0000000000 0.8806894729 0.1193105271 0.6971058127  Biso 1.0 Al
Al5 1.0000000000 0.1193105271 0.8806894729 0.3028941873  Biso 1.0 Al
Al6 1.0000000000 0.8806894729 0.1193105271 0.3028941873  Biso 1.0 Al
Al7 1.0000000000 0.3806894729 0.3806894729 0.8028941873  Biso 1.0 Al
Al8 1.0000000000 0.6193105271 0.6193105271 0.8028941873  Biso 1.0 Al
Er9 1.0000000000 0.0000000000 0.5000000000 0.2500000000  Biso 1.0 Er
Er10 1.0000000000 0.0000000000 0.5000000000 0.7500000000  Biso 1.0 Er
Er11 1.0000000000 0.5000000000 0.0000000000 0.2500000000  Biso 1.0 Er
Er12 1.0000000000 0.5000000000 0.0000000000 0.7500000000  Biso 1.0 Er
Er13 1.0000000000 0.1508947846 0.1508947846 0.0000000000  Biso 1.0 Er
Er14 1.0000000000 0.8491052154 0.8491052154 0.0000000000  Biso 1.0 Er
Er15 1.0000000000 0.3491052154 0.6508947846 0.5000000000  Biso 1.0 Er
Er16 1.0000000000 0.6508947846 0.3491052154 0.5000000000  Biso 1.0 Er
Er17 1.0000000000 0.7013981738 0.2986018262 0.0000000000  Biso 1.0 Er
Er18 1.0000000000 0.2986018262 0.7013981738 0.0000000000  Biso 1.0 Er
Er19 1.0000000000 0.2013981738 0.2013981738 0.5000000000  Biso 1.0 Er
Er20 1.0000000000 0.7986018262 0.7986018262 0.5000000000  Biso 1.0 Er
