# AFLOW.org Repositories
# Al2Mg1O4   [ORCC,ORCC,oS28] (STD_PRIM do
data_Al2Mg1O4
_pd_phase_name Al2Mg1O4
_cell_length_a  4.8442398676
_cell_length_b  4.8442398676
_cell_length_c  9.4626704617
_cell_angle_alpha  90.0000000000
_cell_angle_beta  90.0000000000
_cell_angle_gamma  146.3255558135
_symmetry_space_group_name_H-M  'P1'
_symmetry_Int_Tables_Number  1
loop_
_symmetry_equiv_pos_site_id
_symmetry_equiv_pos_as_xyz
  1  x,y,z
loop_
 _atom_site_label
 _atom_site_occupancy
 _atom_site_fract_x
 _atom_site_fract_y
 _atom_site_fract_z
 _atom_site_thermal_displace_type
 _atom_site_B_iso_or_equiv
 _atom_site_type_symbol
Al1 1.0000000000 0.8654416842 0.1345583158 0.9267535702  Biso 1.0 Al
Al2 1.0000000000 0.1345583158 0.8654416842 0.4267535702  Biso 1.0 Al
Al3 1.0000000000 0.8654416842 0.1345583158 0.5732464298  Biso 1.0 Al
Al4 1.0000000000 0.1345583158 0.8654416842 0.0732464298  Biso 1.0 Al
Mg5 1.0000000000 0.6110063929 0.3889936071 0.7500000000  Biso 1.0 Mg
Mg6 1.0000000000 0.3889936071 0.6110063929 0.2500000000  Biso 1.0 Mg
O7 1.0000000000 0.5000000000 0.5000000000 0.0000000000  Biso 1.0 O
O8 1.0000000000 0.5000000000 0.5000000000 0.5000000000  Biso 1.0 O
O9 1.0000000000 0.9516705097 0.0483294903 0.7500000000  Biso 1.0 O
O10 1.0000000000 0.0483294903 0.9516705097 0.2500000000  Biso 1.0 O
O11 1.0000000000 0.7698889370 0.2301110630 0.1099807582  Biso 1.0 O
O12 1.0000000000 0.2301110630 0.7698889370 0.6099807582  Biso 1.0 O
O13 1.0000000000 0.7698889370 0.2301110630 0.3900192418  Biso 1.0 O
O14 1.0000000000 0.2301110630 0.7698889370 0.8900192418  Biso 1.0 O
