# AFLOW.org Repositories
# Al2Se4Sr1   [ORCC,ORCC,oS28] (STD_PRIM d
data_Al2Se4Sr1
_pd_phase_name Al2Se4Sr1
_cell_length_a  6.3616115632
_cell_length_b  6.3616115632
_cell_length_c  11.1592181019
_cell_angle_alpha  90.0000000000
_cell_angle_beta  90.0000000000
_cell_angle_gamma  121.0749629047
_symmetry_space_group_name_H-M  'P1'
_symmetry_Int_Tables_Number  1
loop_
_symmetry_equiv_pos_site_id
_symmetry_equiv_pos_as_xyz
  1  x,y,z
loop_
 _atom_site_label
 _atom_site_occupancy
 _atom_site_fract_x
 _atom_site_fract_y
 _atom_site_fract_z
 _atom_site_thermal_displace_type
 _atom_site_B_iso_or_equiv
 _atom_site_type_symbol
Al1 1.0000000000 0.2394752239 0.7582869370 0.0000000000  Biso 1.0 Al
Al2 1.0000000000 0.7605247761 0.2417130630 0.0000000000  Biso 1.0 Al
Al3 1.0000000000 0.2417130630 0.7605247761 0.5000000000  Biso 1.0 Al
Al4 1.0000000000 0.7582869370 0.2394752239 0.5000000000  Biso 1.0 Al
Se5 1.0000000000 0.6505947541 0.8183966756 0.0000000000  Biso 1.0 Se
Se6 1.0000000000 0.3494052459 0.1816033244 0.0000000000  Biso 1.0 Se
Se7 1.0000000000 0.1816033244 0.3494052459 0.5000000000  Biso 1.0 Se
Se8 1.0000000000 0.8183966756 0.6505947541 0.5000000000  Biso 1.0 Se
Se9 1.0000000000 0.5000000000 0.0000000000 0.6658673162  Biso 1.0 Se
Se10 1.0000000000 0.0000000000 0.5000000000 0.8341326838  Biso 1.0 Se
Se11 1.0000000000 0.5000000000 0.0000000000 0.3341326838  Biso 1.0 Se
Se12 1.0000000000 0.0000000000 0.5000000000 0.1658673162  Biso 1.0 Se
Sr13 1.0000000000 0.5000000000 0.5000000000 0.7500000000  Biso 1.0 Sr
Sr14 1.0000000000 0.5000000000 0.5000000000 0.2500000000  Biso 1.0 Sr
