# AFLOW.org Repositories
# Al2Te4Zn1   [BCT,BCT2,tI14] (STD_PRIM do
data_Al2Te4Zn1
_pd_phase_name Al2Te4Zn1
_cell_length_a  7.3605616957
_cell_length_b  7.3605616957
_cell_length_c  7.3605616957
_cell_angle_alpha  131.2875987641
_cell_angle_beta  131.2875987641
_cell_angle_gamma  71.3565414918
_symmetry_space_group_name_H-M  'P1'
_symmetry_Int_Tables_Number  1
loop_
_symmetry_equiv_pos_site_id
_symmetry_equiv_pos_as_xyz
  1  x,y,z
loop_
 _atom_site_label
 _atom_site_occupancy
 _atom_site_fract_x
 _atom_site_fract_y
 _atom_site_fract_z
 _atom_site_thermal_displace_type
 _atom_site_B_iso_or_equiv
 _atom_site_type_symbol
Al1 1.0000000000 0.5000000000 0.5000000000 0.0000000000  Biso 1.0 Al
Al2 1.0000000000 0.2500000000 0.7500000000 0.5000000000  Biso 1.0 Al
Te3 1.0000000000 0.6287584768 0.1315616225 0.0254278469  Biso 1.0 Te
Te4 1.0000000000 0.1061337756 0.6033306299 0.9745721531  Biso 1.0 Te
Te5 1.0000000000 0.3966693701 0.3712415232 0.5028031457  Biso 1.0 Te
Te6 1.0000000000 0.8684383775 0.8938662244 0.4971968543  Biso 1.0 Te
Zn7 1.0000000000 0.0000000000 0.0000000000 0.0000000000  Biso 1.0 Zn
