# AFLOW.org Repositories
# Al3Dy1   [BCT,BCT2,tI8] (STD_PRIM doi:10
data_Al3Dy1
_pd_phase_name Al3Dy1
_cell_length_a  5.4516505444
_cell_length_b  5.4516505444
_cell_length_c  5.4516505444
_cell_angle_alpha  134.7947002961
_cell_angle_beta  134.7947002961
_cell_angle_gamma  65.8493567457
_symmetry_space_group_name_H-M  'P1'
_symmetry_Int_Tables_Number  1
loop_
_symmetry_equiv_pos_site_id
_symmetry_equiv_pos_as_xyz
  1  x,y,z
loop_
 _atom_site_label
 _atom_site_occupancy
 _atom_site_fract_x
 _atom_site_fract_y
 _atom_site_fract_z
 _atom_site_thermal_displace_type
 _atom_site_B_iso_or_equiv
 _atom_site_type_symbol
Al1 1.0000000000 0.5000000000 0.5000000000 0.0000000000  Biso 1.0 Al
Al2 1.0000000000 0.2500000000 0.7500000000 0.5000000000  Biso 1.0 Al
Al3 1.0000000000 0.7500000000 0.2500000000 0.5000000000  Biso 1.0 Al
Dy4 1.0000000000 0.0000000000 0.0000000000 0.0000000000  Biso 1.0 Dy
