# AFLOW.org Repositories
# Al3La1Pd2   [HEX,HEX,hP6] (STD_PRIM doi:
data_Al3La1Pd2
_pd_phase_name Al3La1Pd2
_cell_length_a  5.5425804133
_cell_length_b  5.5425804133
_cell_length_c  4.2416203532
_cell_angle_alpha  90.0000000000
_cell_angle_beta  90.0000000000
_cell_angle_gamma  120.0000000000
_symmetry_space_group_name_H-M  'P1'
_symmetry_Int_Tables_Number  1
loop_
_symmetry_equiv_pos_site_id
_symmetry_equiv_pos_as_xyz
  1  x,y,z
loop_
 _atom_site_label
 _atom_site_occupancy
 _atom_site_fract_x
 _atom_site_fract_y
 _atom_site_fract_z
 _atom_site_thermal_displace_type
 _atom_site_B_iso_or_equiv
 _atom_site_type_symbol
Al1 1.0000000000 0.0000000000 0.5000000000 0.5000000000  Biso 1.0 Al
Al2 1.0000000000 0.5000000000 0.5000000000 0.5000000000  Biso 1.0 Al
Al3 1.0000000000 0.5000000000 0.0000000000 0.5000000000  Biso 1.0 Al
La4 1.0000000000 0.0000000000 0.0000000000 0.0000000000  Biso 1.0 La
Pd5 1.0000000000 0.6666879230 0.3333758460 0.0000000000  Biso 1.0 Pd
Pd6 1.0000000000 0.3333120770 0.6666241540 0.0000000000  Biso 1.0 Pd
