# AFLOW.org Repositories
# Al3Pt5   [ORC,ORC,oP16] (STD_PRIM doi:10
data_Al3Pt5
_pd_phase_name Al3Pt5
_cell_length_a  3.9837885435
_cell_length_b  5.4320647480
_cell_length_c  10.7758301584
_cell_angle_alpha  90.0000000000
_cell_angle_beta  90.0000000000
_cell_angle_gamma  90.0000000000
_symmetry_space_group_name_H-M  'P1'
_symmetry_Int_Tables_Number  1
loop_
_symmetry_equiv_pos_site_id
_symmetry_equiv_pos_as_xyz
  1  x,y,z
loop_
 _atom_site_label
 _atom_site_occupancy
 _atom_site_fract_x
 _atom_site_fract_y
 _atom_site_fract_z
 _atom_site_thermal_displace_type
 _atom_site_B_iso_or_equiv
 _atom_site_type_symbol
Al1 1.0000000000 0.0000000000 0.0000000000 0.0000000000  Biso 1.0 Al
Al2 1.0000000000 0.0000000000 0.5000000000 0.5000000000  Biso 1.0 Al
Al3 1.0000000000 0.5000000000 0.3212838344 0.8581401894  Biso 1.0 Al
Al4 1.0000000000 0.5000000000 0.6787161656 0.1418598106  Biso 1.0 Al
Al5 1.0000000000 0.5000000000 0.1787161656 0.3581401894  Biso 1.0 Al
Al6 1.0000000000 0.5000000000 0.8212838344 0.6418598106  Biso 1.0 Al
Pt7 1.0000000000 0.0000000000 0.0000000000 0.5000000000  Biso 1.0 Pt
Pt8 1.0000000000 0.0000000000 0.5000000000 0.0000000000  Biso 1.0 Pt
Pt9 1.0000000000 0.0000000000 0.0696339947 0.7692827942  Biso 1.0 Pt
Pt10 1.0000000000 0.0000000000 0.9303660053 0.2307172058  Biso 1.0 Pt
Pt11 1.0000000000 0.0000000000 0.4303660053 0.2692827942  Biso 1.0 Pt
Pt12 1.0000000000 0.0000000000 0.5696339947 0.7307172058  Biso 1.0 Pt
Pt13 1.0000000000 0.5000000000 0.2941263797 0.6057740953  Biso 1.0 Pt
Pt14 1.0000000000 0.5000000000 0.7058736203 0.3942259047  Biso 1.0 Pt
Pt15 1.0000000000 0.5000000000 0.2058736203 0.1057740953  Biso 1.0 Pt
Pt16 1.0000000000 0.5000000000 0.7941263797 0.8942259047  Biso 1.0 Pt
