# AFLOW.org Repositories
# Al3Ru2   [HEX,HEX,hP5] (STD_PRIM doi:10.
data_Al3Ru2
_pd_phase_name Al3Ru2
_cell_length_a  4.1937130887
_cell_length_b  4.1937130887
_cell_length_c  5.0455973253
_cell_angle_alpha  90.0000000000
_cell_angle_beta  90.0000000000
_cell_angle_gamma  120.0000000000
_symmetry_space_group_name_H-M  'P1'
_symmetry_Int_Tables_Number  1
loop_
_symmetry_equiv_pos_site_id
_symmetry_equiv_pos_as_xyz
  1  x,y,z
loop_
 _atom_site_label
 _atom_site_occupancy
 _atom_site_fract_x
 _atom_site_fract_y
 _atom_site_fract_z
 _atom_site_thermal_displace_type
 _atom_site_B_iso_or_equiv
 _atom_site_type_symbol
Al1 1.0000000000 0.0000000000 0.0000000000 0.0000000000  Biso 1.0 Al
Al2 1.0000000000 0.6666720312 0.3333436616 0.6515963335  Biso 1.0 Al
Al3 1.0000000000 0.3333279688 0.6666563384 0.3484036665  Biso 1.0 Al
Ru4 1.0000000000 0.6666661459 0.3333324708 0.1599470137  Biso 1.0 Ru
Ru5 1.0000000000 0.3333338541 0.6666675292 0.8400529863  Biso 1.0 Ru
