# AFLOW.org Repositories
# Al4Er1Ni1   [ORCC,ORCC,oS24] (STD_PRIM d
data_Al4Er1Ni1
_pd_phase_name Al4Er1Ni1
_cell_length_a  7.9051127393
_cell_length_b  7.9051127393
_cell_length_c  6.5766868443
_cell_angle_alpha  90.0000000000
_cell_angle_beta  90.0000000000
_cell_angle_gamma  150.4027208837
_symmetry_space_group_name_H-M  'P1'
_symmetry_Int_Tables_Number  1
loop_
_symmetry_equiv_pos_site_id
_symmetry_equiv_pos_as_xyz
  1  x,y,z
loop_
 _atom_site_label
 _atom_site_occupancy
 _atom_site_fract_x
 _atom_site_fract_y
 _atom_site_fract_z
 _atom_site_thermal_displace_type
 _atom_site_B_iso_or_equiv
 _atom_site_type_symbol
Al1 1.0000000000 0.5000000000 0.5000000000 0.0000000000  Biso 1.0 Al
Al2 1.0000000000 0.5000000000 0.5000000000 0.5000000000  Biso 1.0 Al
Al3 1.0000000000 0.0762348994 0.9237651006 0.7500000000  Biso 1.0 Al
Al4 1.0000000000 0.9237651006 0.0762348994 0.2500000000  Biso 1.0 Al
Al5 1.0000000000 0.6882014652 0.3117985348 0.9481239067  Biso 1.0 Al
Al6 1.0000000000 0.3117985348 0.6882014652 0.4481239067  Biso 1.0 Al
Al7 1.0000000000 0.6882014652 0.3117985348 0.5518760933  Biso 1.0 Al
Al8 1.0000000000 0.3117985348 0.6882014652 0.0518760933  Biso 1.0 Al
Er9 1.0000000000 0.8825487594 0.1174512406 0.7500000000  Biso 1.0 Er
Er10 1.0000000000 0.1174512406 0.8825487594 0.2500000000  Biso 1.0 Er
Ni11 1.0000000000 0.2265898303 0.7734101697 0.7500000000  Biso 1.0 Ni
Ni12 1.0000000000 0.7734101697 0.2265898303 0.2500000000  Biso 1.0 Ni
