# AFLOW.org Repositories
# Al5C3N1   [HEX,HEX,hP18] (STD_PRIM doi:1
data_Al5C3N1
_pd_phase_name Al5C3N1
_cell_length_a  3.3450288321
_cell_length_b  3.3450288321
_cell_length_c  20.9687961992
_cell_angle_alpha  90.0000000000
_cell_angle_beta  90.0000000000
_cell_angle_gamma  120.0000000000
_symmetry_space_group_name_H-M  'P1'
_symmetry_Int_Tables_Number  1
loop_
_symmetry_equiv_pos_site_id
_symmetry_equiv_pos_as_xyz
  1  x,y,z
loop_
 _atom_site_label
 _atom_site_occupancy
 _atom_site_fract_x
 _atom_site_fract_y
 _atom_site_fract_z
 _atom_site_thermal_displace_type
 _atom_site_B_iso_or_equiv
 _atom_site_type_symbol
Al1 1.0000000000 0.0000000000 0.0000000000 0.1521178314  Biso 1.0 Al
Al2 1.0000000000 0.0000000000 0.0000000000 0.6521178314  Biso 1.0 Al
Al3 1.0000000000 0.3333296843 0.6666703157 0.0463602651  Biso 1.0 Al
Al4 1.0000000000 0.6666703157 0.3333296843 0.5463602651  Biso 1.0 Al
Al5 1.0000000000 0.3333302625 0.6666697375 0.4507680290  Biso 1.0 Al
Al6 1.0000000000 0.6666697375 0.3333302625 0.9507680290  Biso 1.0 Al
Al7 1.0000000000 0.0000000000 0.0000000000 0.3449857184  Biso 1.0 Al
Al8 1.0000000000 0.0000000000 0.0000000000 0.8449857184  Biso 1.0 Al
Al9 1.0000000000 0.3333213596 0.6666786404 0.2485086920  Biso 1.0 Al
Al10 1.0000000000 0.6666786404 0.3333213596 0.7485086920  Biso 1.0 Al
C11 1.0000000000 0.3333208093 0.6666791907 0.1384664701  Biso 1.0 C
C12 1.0000000000 0.6666791907 0.3333208093 0.6384664701  Biso 1.0 C
C13 1.0000000000 0.0000000000 0.0000000000 0.9985801310  Biso 1.0 C
C14 1.0000000000 0.0000000000 0.0000000000 0.4985801310  Biso 1.0 C
C15 1.0000000000 0.3333208489 0.6666791511 0.3586773041  Biso 1.0 C
C16 1.0000000000 0.6666791511 0.3333208489 0.8586773041  Biso 1.0 C
N17 1.0000000000 0.0000000000 0.0000000000 0.2485355589  Biso 1.0 N
N18 1.0000000000 0.0000000000 0.0000000000 0.7485355589  Biso 1.0 N
