# AFLOW.org Repositories
# As1Ca3N1   [ORC,ORC,oP20] (STD_PRIM doi:
data_As1Ca3N1
_pd_phase_name As1Ca3N1
_cell_length_a  6.7363605913
_cell_length_b  6.7410564153
_cell_length_c  9.5658053839
_cell_angle_alpha  90.0000000000
_cell_angle_beta  90.0000000000
_cell_angle_gamma  90.0000000000
_symmetry_space_group_name_H-M  'P1'
_symmetry_Int_Tables_Number  1
loop_
_symmetry_equiv_pos_site_id
_symmetry_equiv_pos_as_xyz
  1  x,y,z
loop_
 _atom_site_label
 _atom_site_occupancy
 _atom_site_fract_x
 _atom_site_fract_y
 _atom_site_fract_z
 _atom_site_thermal_displace_type
 _atom_site_B_iso_or_equiv
 _atom_site_type_symbol
As1 1.0000000000 0.9875565279 0.0000000000 0.2500000000  Biso 1.0 As
As2 1.0000000000 0.5124434721 0.4991680538 0.7500000000  Biso 1.0 As
As3 1.0000000000 0.0124434721 0.0000000000 0.7500000000  Biso 1.0 As
As4 1.0000000000 0.4875565279 0.5008319462 0.2500000000  Biso 1.0 As
Ca5 1.0000000000 0.5049386691 0.0332681053 0.2500000000  Biso 1.0 Ca
Ca6 1.0000000000 0.9950613309 0.5332681053 0.7500000000  Biso 1.0 Ca
Ca7 1.0000000000 0.4950613309 0.9667318947 0.7500000000  Biso 1.0 Ca
Ca8 1.0000000000 0.0049386691 0.4667318947 0.2500000000  Biso 1.0 Ca
Ca9 1.0000000000 0.7188970990 0.7189479433 0.0169186439  Biso 1.0 Ca
Ca10 1.0000000000 0.7811029010 0.2189479433 0.9830813561  Biso 1.0 Ca
Ca11 1.0000000000 0.2811029010 0.2810520567 0.5169186439  Biso 1.0 Ca
Ca12 1.0000000000 0.2188970990 0.7810520567 0.4830813561  Biso 1.0 Ca
Ca13 1.0000000000 0.2811029010 0.2810520567 0.9830813561  Biso 1.0 Ca
Ca14 1.0000000000 0.2188970990 0.7810520567 0.0169186439  Biso 1.0 Ca
Ca15 1.0000000000 0.7188970990 0.7189479433 0.4830813561  Biso 1.0 Ca
Ca16 1.0000000000 0.7811029010 0.2189479433 0.5169186439  Biso 1.0 Ca
N17 1.0000000000 0.0000000000 0.5000000000 0.0000000000  Biso 1.0 N
N18 1.0000000000 0.5000000000 0.0000000000 0.0000000000  Biso 1.0 N
N19 1.0000000000 0.0000000000 0.5000000000 0.5000000000  Biso 1.0 N
N20 1.0000000000 0.5000000000 0.0000000000 0.5000000000  Biso 1.0 N
