# AFLOW.org Repositories
# As1Co1Nb1   [ORC,ORC,oP12] (STD_PRIM doi
data_As1Co1Nb1
_pd_phase_name As1Co1Nb1
_cell_length_a  3.7719992811
_cell_length_b  6.4011102814
_cell_length_c  7.1454826196
_cell_angle_alpha  90.0000000000
_cell_angle_beta  90.0000000000
_cell_angle_gamma  90.0000000000
_symmetry_space_group_name_H-M  'P1'
_symmetry_Int_Tables_Number  1
loop_
_symmetry_equiv_pos_site_id
_symmetry_equiv_pos_as_xyz
  1  x,y,z
loop_
 _atom_site_label
 _atom_site_occupancy
 _atom_site_fract_x
 _atom_site_fract_y
 _atom_site_fract_z
 _atom_site_thermal_displace_type
 _atom_site_B_iso_or_equiv
 _atom_site_type_symbol
As1 1.0000000000 0.2500000000 0.2810904730 0.6168463533  Biso 1.0 As
As2 1.0000000000 0.7500000000 0.2189095270 0.1168463533  Biso 1.0 As
As3 1.0000000000 0.7500000000 0.7189095270 0.3831536467  Biso 1.0 As
As4 1.0000000000 0.2500000000 0.7810904730 0.8831536467  Biso 1.0 As
Co5 1.0000000000 0.2500000000 0.1477010201 0.9305411092  Biso 1.0 Co
Co6 1.0000000000 0.7500000000 0.3522989799 0.4305411092  Biso 1.0 Co
Co7 1.0000000000 0.7500000000 0.8522989799 0.0694588908  Biso 1.0 Co
Co8 1.0000000000 0.2500000000 0.6477010201 0.5694588908  Biso 1.0 Co
Nb9 1.0000000000 0.2500000000 0.0128317724 0.3261878850  Biso 1.0 Nb
Nb10 1.0000000000 0.7500000000 0.4871682276 0.8261878850  Biso 1.0 Nb
Nb11 1.0000000000 0.7500000000 0.9871682276 0.6738121150  Biso 1.0 Nb
Nb12 1.0000000000 0.2500000000 0.5128317724 0.1738121150  Biso 1.0 Nb
