# AFLOW.org Repositories
# As1Dy1Pd1   [ORC,ORC,oP12] (STD_PRIM doi
data_As1Dy1Pd1
_pd_phase_name As1Dy1Pd1
_cell_length_a  4.1388307959
_cell_length_b  7.0763826421
_cell_length_c  7.9511115222
_cell_angle_alpha  90.0000000000
_cell_angle_beta  90.0000000000
_cell_angle_gamma  90.0000000000
_symmetry_space_group_name_H-M  'P1'
_symmetry_Int_Tables_Number  1
loop_
_symmetry_equiv_pos_site_id
_symmetry_equiv_pos_as_xyz
  1  x,y,z
loop_
 _atom_site_label
 _atom_site_occupancy
 _atom_site_fract_x
 _atom_site_fract_y
 _atom_site_fract_z
 _atom_site_thermal_displace_type
 _atom_site_B_iso_or_equiv
 _atom_site_type_symbol
As1 1.0000000000 0.2500000000 0.2482800595 0.8805515590  Biso 1.0 As
As2 1.0000000000 0.7500000000 0.2517199405 0.3805515590  Biso 1.0 As
As3 1.0000000000 0.7500000000 0.7517199405 0.1194484410  Biso 1.0 As
As4 1.0000000000 0.2500000000 0.7482800595 0.6194484410  Biso 1.0 As
Dy5 1.0000000000 0.2500000000 0.5303372487 0.3066603287  Biso 1.0 Dy
Dy6 1.0000000000 0.7500000000 0.9696627513 0.8066603287  Biso 1.0 Dy
Dy7 1.0000000000 0.7500000000 0.4696627513 0.6933396713  Biso 1.0 Dy
Dy8 1.0000000000 0.2500000000 0.0303372487 0.1933396713  Biso 1.0 Dy
Pd9 1.0000000000 0.2500000000 0.6444234185 0.9371395692  Biso 1.0 Pd
Pd10 1.0000000000 0.7500000000 0.8555765815 0.4371395692  Biso 1.0 Pd
Pd11 1.0000000000 0.7500000000 0.3555765815 0.0628604308  Biso 1.0 Pd
Pd12 1.0000000000 0.2500000000 0.1444234185 0.5628604308  Biso 1.0 Pd
