# AFLOW.org Repositories
# As1Hf1   [HEX,HEX,hP8] (STD_PRIM doi:10.
data_As1Hf1
_pd_phase_name As1Hf1
_cell_length_a  3.8027412131
_cell_length_b  3.8027412131
_cell_length_c  12.7753660814
_cell_angle_alpha  90.0000000000
_cell_angle_beta  90.0000000000
_cell_angle_gamma  120.0000000000
_symmetry_space_group_name_H-M  'P1'
_symmetry_Int_Tables_Number  1
loop_
_symmetry_equiv_pos_site_id
_symmetry_equiv_pos_as_xyz
  1  x,y,z
loop_
 _atom_site_label
 _atom_site_occupancy
 _atom_site_fract_x
 _atom_site_fract_y
 _atom_site_fract_z
 _atom_site_thermal_displace_type
 _atom_site_B_iso_or_equiv
 _atom_site_type_symbol
As1 1.0000000000 0.0000000000 0.0000000000 0.0000000000  Biso 1.0 As
As2 1.0000000000 0.0000000000 0.0000000000 0.5000000000  Biso 1.0 As
As3 1.0000000000 0.6666710572 0.3333421143 0.7500000000  Biso 1.0 As
As4 1.0000000000 0.3333289428 0.6666578857 0.2500000000  Biso 1.0 As
Hf5 1.0000000000 0.6666745622 0.3333491245 0.1169341231  Biso 1.0 Hf
Hf6 1.0000000000 0.3333254378 0.6666508755 0.6169341231  Biso 1.0 Hf
Hf7 1.0000000000 0.3333254378 0.6666508755 0.8830658769  Biso 1.0 Hf
Hf8 1.0000000000 0.6666745622 0.3333491245 0.3830658769  Biso 1.0 Hf
