# AFLOW.org Repositories
# As1In1   [CUB,CUB,cP16] (STD_PRIM doi:10
data_As1In1
_pd_phase_name As1In1
_cell_length_a  7.5265705352
_cell_length_b  7.5265705352
_cell_length_c  7.5265705352
_cell_angle_alpha  90.0000000000
_cell_angle_beta  90.0000000000
_cell_angle_gamma  90.0000000000
_symmetry_space_group_name_H-M  'P1'
_symmetry_Int_Tables_Number  1
loop_
_symmetry_equiv_pos_site_id
_symmetry_equiv_pos_as_xyz
  1  x,y,z
loop_
 _atom_site_label
 _atom_site_occupancy
 _atom_site_fract_x
 _atom_site_fract_y
 _atom_site_fract_z
 _atom_site_thermal_displace_type
 _atom_site_B_iso_or_equiv
 _atom_site_type_symbol
As1 1.0000000000 0.8627191391 0.8627191391 0.1372808609  Biso 1.0 As
As2 1.0000000000 0.6372808609 0.1372808609 0.6372808609  Biso 1.0 As
As3 1.0000000000 0.1372808609 0.3627191391 0.3627191391  Biso 1.0 As
As4 1.0000000000 0.3627191391 0.6372808609 0.8627191391  Biso 1.0 As
As5 1.0000000000 0.1372808609 0.1372808609 0.8627191391  Biso 1.0 As
As6 1.0000000000 0.3627191391 0.8627191391 0.3627191391  Biso 1.0 As
As7 1.0000000000 0.8627191391 0.6372808609 0.6372808609  Biso 1.0 As
As8 1.0000000000 0.6372808609 0.3627191391 0.1372808609  Biso 1.0 As
In9 1.0000000000 0.6599881699 0.6599881699 0.3400118301  Biso 1.0 In
In10 1.0000000000 0.8400118301 0.3400118301 0.8400118301  Biso 1.0 In
In11 1.0000000000 0.3400118301 0.1599881699 0.1599881699  Biso 1.0 In
In12 1.0000000000 0.1599881699 0.8400118301 0.6599881699  Biso 1.0 In
In13 1.0000000000 0.3400118301 0.3400118301 0.6599881699  Biso 1.0 In
In14 1.0000000000 0.1599881699 0.6599881699 0.1599881699  Biso 1.0 In
In15 1.0000000000 0.6599881699 0.8400118301 0.8400118301  Biso 1.0 In
In16 1.0000000000 0.8400118301 0.1599881699 0.3400118301  Biso 1.0 In
