# AFLOW.org Repositories
# As1Mn1Ru1   [HEX,HEX,hP9] (STD_PRIM doi:
data_As1Mn1Ru1
_pd_phase_name As1Mn1Ru1
_cell_length_a  6.6394903982
_cell_length_b  6.6394903982
_cell_length_c  3.6575716988
_cell_angle_alpha  90.0000000000
_cell_angle_beta  90.0000000000
_cell_angle_gamma  120.0000000000
_symmetry_space_group_name_H-M  'P1'
_symmetry_Int_Tables_Number  1
loop_
_symmetry_equiv_pos_site_id
_symmetry_equiv_pos_as_xyz
  1  x,y,z
loop_
 _atom_site_label
 _atom_site_occupancy
 _atom_site_fract_x
 _atom_site_fract_y
 _atom_site_fract_z
 _atom_site_thermal_displace_type
 _atom_site_B_iso_or_equiv
 _atom_site_type_symbol
As1 1.0000000000 0.0000000000 0.0000000000 0.5000000000  Biso 1.0 As
As2 1.0000000000 0.6666832287 0.3333389384 0.0000000000  Biso 1.0 As
As3 1.0000000000 0.3333442904 0.6666610616 0.0000000000  Biso 1.0 As
Mn4 1.0000000000 0.0000000000 0.4048928771 0.5000000000  Biso 1.0 Mn
Mn5 1.0000000000 0.5951071229 0.5951071229 0.5000000000  Biso 1.0 Mn
Mn6 1.0000000000 0.4049166969 0.0000000000 0.5000000000  Biso 1.0 Mn
Ru7 1.0000000000 0.0000000000 0.7448300607 0.0000000000  Biso 1.0 Ru
Ru8 1.0000000000 0.2551699393 0.2551699393 0.0000000000  Biso 1.0 Ru
Ru9 1.0000000000 0.7448022174 0.0000000000 0.0000000000  Biso 1.0 Ru
