# AFLOW.org Repositories
# As1Na3   [HEX,HEX,hP8] (STD_PRIM doi:10.
data_As1Na3
_pd_phase_name As1Na3
_cell_length_a  5.0644355881
_cell_length_b  5.0644355881
_cell_length_c  9.0215459760
_cell_angle_alpha  90.0000000000
_cell_angle_beta  90.0000000000
_cell_angle_gamma  120.0000000000
_symmetry_space_group_name_H-M  'P1'
_symmetry_Int_Tables_Number  1
loop_
_symmetry_equiv_pos_site_id
_symmetry_equiv_pos_as_xyz
  1  x,y,z
loop_
 _atom_site_label
 _atom_site_occupancy
 _atom_site_fract_x
 _atom_site_fract_y
 _atom_site_fract_z
 _atom_site_thermal_displace_type
 _atom_site_B_iso_or_equiv
 _atom_site_type_symbol
As1 1.0000000000 0.6666916935 0.3333833870 0.2500000000  Biso 1.0 As
As2 1.0000000000 0.3333083065 0.6666166130 0.7500000000  Biso 1.0 As
Na3 1.0000000000 0.0000000000 0.0000000000 0.2500000000  Biso 1.0 Na
Na4 1.0000000000 0.0000000000 0.0000000000 0.7500000000  Biso 1.0 Na
Na5 1.0000000000 0.6666954799 0.3333909598 0.5800762185  Biso 1.0 Na
Na6 1.0000000000 0.3333045201 0.6666090402 0.0800762185  Biso 1.0 Na
Na7 1.0000000000 0.3333045201 0.6666090402 0.4199237815  Biso 1.0 Na
Na8 1.0000000000 0.6666954799 0.3333909598 0.9199237815  Biso 1.0 Na
