# AFLOW.org Repositories
# As1Ni1Se1   [CUB,CUB,cP12] (STD_PRIM doi
data_As1Ni1Se1
_pd_phase_name As1Ni1Se1
_cell_length_a  5.8643949696
_cell_length_b  5.8643949696
_cell_length_c  5.8643949696
_cell_angle_alpha  90.0000000000
_cell_angle_beta  90.0000000000
_cell_angle_gamma  90.0000000000
_symmetry_space_group_name_H-M  'P1'
_symmetry_Int_Tables_Number  1
loop_
_symmetry_equiv_pos_site_id
_symmetry_equiv_pos_as_xyz
  1  x,y,z
loop_
 _atom_site_label
 _atom_site_occupancy
 _atom_site_fract_x
 _atom_site_fract_y
 _atom_site_fract_z
 _atom_site_thermal_displace_type
 _atom_site_B_iso_or_equiv
 _atom_site_type_symbol
As1 1.0000000000 0.3768319384 0.3768319384 0.6231680616  Biso 1.0 As
As2 1.0000000000 0.1231500762 0.6231670192 0.1231553627  Biso 1.0 As
As3 1.0000000000 0.6231670192 0.8768446373 0.8768499238  Biso 1.0 As
As4 1.0000000000 0.8768446373 0.1231500762 0.3768329808  Biso 1.0 As
Ni5 1.0000000000 0.9972053749 0.9972053749 0.0027946251  Biso 1.0 Ni
Ni6 1.0000000000 0.5028160251 0.0027955569 0.5028135260  Biso 1.0 Ni
Ni7 1.0000000000 0.0027955569 0.4971864740 0.4971839749  Biso 1.0 Ni
Ni8 1.0000000000 0.4971864740 0.5028160251 0.9972044431  Biso 1.0 Ni
Se9 1.0000000000 0.6218289048 0.6218289048 0.3781710952  Biso 1.0 Se
Se10 1.0000000000 0.8781573167 0.3781753731 0.8781586966  Biso 1.0 Se
Se11 1.0000000000 0.3781753731 0.1218413034 0.1218426833  Biso 1.0 Se
Se12 1.0000000000 0.1218413034 0.8781573167 0.6218246269  Biso 1.0 Se
