# AFLOW.org Repositories
# As1Pt5Tl1   [TET,TET,tP7] (STD_PRIM doi:
data_As1Pt5Tl1
_pd_phase_name As1Pt5Tl1
_cell_length_a  4.0437604729
_cell_length_b  4.0437604729
_cell_length_c  7.2053530971
_cell_angle_alpha  90.0000000000
_cell_angle_beta  90.0000000000
_cell_angle_gamma  90.0000000000
_symmetry_space_group_name_H-M  'P1'
_symmetry_Int_Tables_Number  1
loop_
_symmetry_equiv_pos_site_id
_symmetry_equiv_pos_as_xyz
  1  x,y,z
loop_
 _atom_site_label
 _atom_site_occupancy
 _atom_site_fract_x
 _atom_site_fract_y
 _atom_site_fract_z
 _atom_site_thermal_displace_type
 _atom_site_B_iso_or_equiv
 _atom_site_type_symbol
As1 1.0000000000 0.0000000000 0.0000000000 0.5000000000  Biso 1.0 As
Pt2 1.0000000000 0.0000000000 0.0000000000 0.0000000000  Biso 1.0 Pt
Pt3 1.0000000000 0.0000000000 0.5000000000 0.2913484328  Biso 1.0 Pt
Pt4 1.0000000000 0.5000000000 0.0000000000 0.2913484328  Biso 1.0 Pt
Pt5 1.0000000000 0.0000000000 0.5000000000 0.7086515672  Biso 1.0 Pt
Pt6 1.0000000000 0.5000000000 0.0000000000 0.7086515672  Biso 1.0 Pt
Tl7 1.0000000000 0.5000000000 0.5000000000 0.0000000000  Biso 1.0 Tl
