# AFLOW.org Repositories
# As2Ge1Mg1   [BCT,BCT2,tI16] (STD_PRIM do
data_As2Ge1Mg1
_pd_phase_name As2Ge1Mg1
_cell_length_a  7.0682724594
_cell_length_b  7.0682724594
_cell_length_c  7.0682724594
_cell_angle_alpha  129.5884034485
_cell_angle_beta  129.5884034485
_cell_angle_gamma  74.0656321512
_symmetry_space_group_name_H-M  'P1'
_symmetry_Int_Tables_Number  1
loop_
_symmetry_equiv_pos_site_id
_symmetry_equiv_pos_as_xyz
  1  x,y,z
loop_
 _atom_site_label
 _atom_site_occupancy
 _atom_site_fract_x
 _atom_site_fract_y
 _atom_site_fract_z
 _atom_site_thermal_displace_type
 _atom_site_B_iso_or_equiv
 _atom_site_type_symbol
As1 1.0000000000 0.8521792133 0.3750000000 0.9771792133  Biso 1.0 As
As2 1.0000000000 0.3978207867 0.8750000000 0.0228207867  Biso 1.0 As
As3 1.0000000000 0.6250000000 0.6021792133 0.4771792133  Biso 1.0 As
As4 1.0000000000 0.1250000000 0.1478207867 0.5228207867  Biso 1.0 As
Ge5 1.0000000000 0.5000000000 0.5000000000 0.0000000000  Biso 1.0 Ge
Ge6 1.0000000000 0.7500000000 0.2500000000 0.5000000000  Biso 1.0 Ge
Mg7 1.0000000000 0.0000000000 0.0000000000 0.0000000000  Biso 1.0 Mg
Mg8 1.0000000000 0.2500000000 0.7500000000 0.5000000000  Biso 1.0 Mg
