# AFLOW.org Repositories
# As2Mg3   [BCC,BCC,cI80] (STD_PRIM doi:10
data_As2Mg3
_pd_phase_name As2Mg3
_cell_length_a  10.7958431313
_cell_length_b  10.7958431313
_cell_length_c  10.7958431313
_cell_angle_alpha  109.4712206345
_cell_angle_beta  109.4712206345
_cell_angle_gamma  109.4712206345
_symmetry_space_group_name_H-M  'P1'
_symmetry_Int_Tables_Number  1
loop_
_symmetry_equiv_pos_site_id
_symmetry_equiv_pos_as_xyz
  1  x,y,z
loop_
 _atom_site_label
 _atom_site_occupancy
 _atom_site_fract_x
 _atom_site_fract_y
 _atom_site_fract_z
 _atom_site_thermal_displace_type
 _atom_site_B_iso_or_equiv
 _atom_site_type_symbol
As1 1.0000000000 0.0000000000 0.5000000000 0.0000000000  Biso 1.0 As
As2 1.0000000000 0.0000000000 0.0000000000 0.5000000000  Biso 1.0 As
As3 1.0000000000 0.5000000000 0.5000000000 0.5000000000  Biso 1.0 As
As4 1.0000000000 0.5000000000 0.0000000000 0.0000000000  Biso 1.0 As
As5 1.0000000000 0.7500000000 0.9780159824 0.7280159824  Biso 1.0 As
As6 1.0000000000 0.2500000000 0.5219840176 0.7719840176  Biso 1.0 As
As7 1.0000000000 0.9780159824 0.2280159824 0.2500000000  Biso 1.0 As
As8 1.0000000000 0.5219840176 0.2719840176 0.7500000000  Biso 1.0 As
As9 1.0000000000 0.2719840176 0.2500000000 0.0219840176  Biso 1.0 As
As10 1.0000000000 0.2280159824 0.7500000000 0.4780159824  Biso 1.0 As
As11 1.0000000000 0.2500000000 0.0219840176 0.2719840176  Biso 1.0 As
As12 1.0000000000 0.7500000000 0.4780159824 0.2280159824  Biso 1.0 As
As13 1.0000000000 0.0219840176 0.7719840176 0.7500000000  Biso 1.0 As
As14 1.0000000000 0.4780159824 0.7280159824 0.2500000000  Biso 1.0 As
As15 1.0000000000 0.7280159824 0.7500000000 0.9780159824  Biso 1.0 As
As16 1.0000000000 0.7719840176 0.2500000000 0.5219840176  Biso 1.0 As
Mg17 1.0000000000 0.7657858778 0.5308441490 0.0068025853  Biso 1.0 Mg
Mg18 1.0000000000 0.9759584363 0.9691558510 0.2349417288  Biso 1.0 Mg
Mg19 1.0000000000 0.5240415637 0.2589832925 0.4931974147  Biso 1.0 Mg
Mg20 1.0000000000 0.7342141222 0.2410167075 0.2650582712  Biso 1.0 Mg
Mg21 1.0000000000 0.2410167075 0.7650582712 0.2342141222  Biso 1.0 Mg
Mg22 1.0000000000 0.2589832925 0.9931974147 0.0240415637  Biso 1.0 Mg
Mg23 1.0000000000 0.9691558510 0.7349417288 0.4759584363  Biso 1.0 Mg
Mg24 1.0000000000 0.5308441490 0.5068025853 0.2657858778  Biso 1.0 Mg
Mg25 1.0000000000 0.9931974147 0.5240415637 0.7589832925  Biso 1.0 Mg
Mg26 1.0000000000 0.7650582712 0.7342141222 0.7410167075  Biso 1.0 Mg
Mg27 1.0000000000 0.5068025853 0.7657858778 0.0308441490  Biso 1.0 Mg
Mg28 1.0000000000 0.7349417288 0.9759584363 0.4691558510  Biso 1.0 Mg
Mg29 1.0000000000 0.2342141222 0.4691558510 0.9931974147  Biso 1.0 Mg
Mg30 1.0000000000 0.0240415637 0.0308441490 0.7650582712  Biso 1.0 Mg
Mg31 1.0000000000 0.4759584363 0.7410167075 0.5068025853  Biso 1.0 Mg
Mg32 1.0000000000 0.2657858778 0.7589832925 0.7349417288  Biso 1.0 Mg
Mg33 1.0000000000 0.7589832925 0.2349417288 0.7657858778  Biso 1.0 Mg
Mg34 1.0000000000 0.7410167075 0.0068025853 0.9759584363  Biso 1.0 Mg
Mg35 1.0000000000 0.0308441490 0.2650582712 0.5240415637  Biso 1.0 Mg
Mg36 1.0000000000 0.4691558510 0.4931974147 0.7342141222  Biso 1.0 Mg
Mg37 1.0000000000 0.0068025853 0.4759584363 0.2410167075  Biso 1.0 Mg
Mg38 1.0000000000 0.2349417288 0.2657858778 0.2589832925  Biso 1.0 Mg
Mg39 1.0000000000 0.4931974147 0.2342141222 0.9691558510  Biso 1.0 Mg
Mg40 1.0000000000 0.2650582712 0.0240415637 0.5308441490  Biso 1.0 Mg
