# AFLOW.org Repositories
# Au1Dy1Ge1   [HEX,HEX,hP6] (STD_PRIM doi:
data_Au1Dy1Ge1
_pd_phase_name Au1Dy1Ge1
_cell_length_a  4.4786574061
_cell_length_b  4.4786574061
_cell_length_c  7.3077611493
_cell_angle_alpha  90.0000000000
_cell_angle_beta  90.0000000000
_cell_angle_gamma  120.0000000000
_symmetry_space_group_name_H-M  'P1'
_symmetry_Int_Tables_Number  1
loop_
_symmetry_equiv_pos_site_id
_symmetry_equiv_pos_as_xyz
  1  x,y,z
loop_
 _atom_site_label
 _atom_site_occupancy
 _atom_site_fract_x
 _atom_site_fract_y
 _atom_site_fract_z
 _atom_site_thermal_displace_type
 _atom_site_B_iso_or_equiv
 _atom_site_type_symbol
Au1 1.0000000000 0.3333356237 0.6666678118 0.1326686745  Biso 1.0 Au
Au2 1.0000000000 0.6666643763 0.3333321882 0.6326686745  Biso 1.0 Au
Dy3 1.0000000000 0.0000000000 0.0000000000 0.8435391786  Biso 1.0 Dy
Dy4 1.0000000000 0.0000000000 0.0000000000 0.3435391786  Biso 1.0 Dy
Ge5 1.0000000000 0.3333317309 0.6666658655 0.5497921469  Biso 1.0 Ge
Ge6 1.0000000000 0.6666682691 0.3333341345 0.0497921469  Biso 1.0 Ge
