# AFLOW.org Repositories
# Au2Nb1   [HEX,HEX,hP3] (STD_PRIM doi:10.
data_Au2Nb1
_pd_phase_name Au2Nb1
_cell_length_a  4.6984749022
_cell_length_b  4.6984749022
_cell_length_c  2.7576118055
_cell_angle_alpha  90.0000000000
_cell_angle_beta  90.0000000000
_cell_angle_gamma  120.0000000000
_symmetry_space_group_name_H-M  'P1'
_symmetry_Int_Tables_Number  1
loop_
_symmetry_equiv_pos_site_id
_symmetry_equiv_pos_as_xyz
  1  x,y,z
loop_
 _atom_site_label
 _atom_site_occupancy
 _atom_site_fract_x
 _atom_site_fract_y
 _atom_site_fract_z
 _atom_site_thermal_displace_type
 _atom_site_B_iso_or_equiv
 _atom_site_type_symbol
Au1 1.0000000000 0.3333243114 0.6666756886 0.5000000000  Biso 1.0 Au
Au2 1.0000000000 0.6666756886 0.3333243114 0.5000000000  Biso 1.0 Au
Nb3 1.0000000000 0.0000000000 0.0000000000 0.0000000000  Biso 1.0 Nb
