# AFLOW.org Repositories
# Au4Hf1   [ORC,ORC,oP20] (STD_PRIM doi:10
data_Au4Hf1
_pd_phase_name Au4Hf1
_cell_length_a  4.9024679645
_cell_length_b  5.0783757203
_cell_length_c  14.4345614230
_cell_angle_alpha  90.0000000000
_cell_angle_beta  90.0000000000
_cell_angle_gamma  90.0000000000
_symmetry_space_group_name_H-M  'P1'
_symmetry_Int_Tables_Number  1
loop_
_symmetry_equiv_pos_site_id
_symmetry_equiv_pos_as_xyz
  1  x,y,z
loop_
 _atom_site_label
 _atom_site_occupancy
 _atom_site_fract_x
 _atom_site_fract_y
 _atom_site_fract_z
 _atom_site_thermal_displace_type
 _atom_site_B_iso_or_equiv
 _atom_site_type_symbol
Au1 1.0000000000 0.2500000000 0.1607271734 0.9989112505  Biso 1.0 Au
Au2 1.0000000000 0.7500000000 0.3392728266 0.4989112505  Biso 1.0 Au
Au3 1.0000000000 0.7500000000 0.8392728266 0.0010887495  Biso 1.0 Au
Au4 1.0000000000 0.2500000000 0.6607271734 0.5010887495  Biso 1.0 Au
Au5 1.0000000000 0.2500000000 0.1571166721 0.7980864438  Biso 1.0 Au
Au6 1.0000000000 0.7500000000 0.3428833279 0.2980864438  Biso 1.0 Au
Au7 1.0000000000 0.7500000000 0.8428833279 0.2019135562  Biso 1.0 Au
Au8 1.0000000000 0.2500000000 0.6571166721 0.7019135562  Biso 1.0 Au
Au9 1.0000000000 0.2500000000 0.1566204449 0.4002579065  Biso 1.0 Au
Au10 1.0000000000 0.7500000000 0.3433795551 0.9002579065  Biso 1.0 Au
Au11 1.0000000000 0.7500000000 0.8433795551 0.5997420935  Biso 1.0 Au
Au12 1.0000000000 0.2500000000 0.6566204449 0.0997420935  Biso 1.0 Au
Au13 1.0000000000 0.2500000000 0.6723473596 0.3038798154  Biso 1.0 Au
Au14 1.0000000000 0.7500000000 0.8276526404 0.8038798154  Biso 1.0 Au
Au15 1.0000000000 0.7500000000 0.3276526404 0.6961201846  Biso 1.0 Au
Au16 1.0000000000 0.2500000000 0.1723473596 0.1961201846  Biso 1.0 Au
Hf17 1.0000000000 0.2500000000 0.6563430099 0.9017175123  Biso 1.0 Hf
Hf18 1.0000000000 0.7500000000 0.8436569901 0.4017175123  Biso 1.0 Hf
Hf19 1.0000000000 0.7500000000 0.3436569901 0.0982824877  Biso 1.0 Hf
Hf20 1.0000000000 0.2500000000 0.1563430099 0.5982824877  Biso 1.0 Hf
