# AFLOW.org Repositories
# Au4Yb1   [BCT,BCT1,tI10] (STD_PRIM doi:1
data_Au4Yb1
_pd_phase_name Au4Yb1
_cell_length_a  5.2668879552
_cell_length_b  5.2668879552
_cell_length_c  5.2668879552
_cell_angle_alpha  99.7562717789
_cell_angle_beta  99.7562717789
_cell_angle_gamma  131.3826912133
_symmetry_space_group_name_H-M  'P1'
_symmetry_Int_Tables_Number  1
loop_
_symmetry_equiv_pos_site_id
_symmetry_equiv_pos_as_xyz
  1  x,y,z
loop_
 _atom_site_label
 _atom_site_occupancy
 _atom_site_fract_x
 _atom_site_fract_y
 _atom_site_fract_z
 _atom_site_thermal_displace_type
 _atom_site_B_iso_or_equiv
 _atom_site_type_symbol
Au1 1.0000000000 0.5952834909 0.8030042759 0.3982877668  Biso 1.0 Au
Au2 1.0000000000 0.4047165091 0.1969957241 0.6017122332  Biso 1.0 Au
Au3 1.0000000000 0.8030042759 0.4047165091 0.2077207849  Biso 1.0 Au
Au4 1.0000000000 0.1969957241 0.5952834909 0.7922792151  Biso 1.0 Au
Yb5 1.0000000000 0.0000000000 0.0000000000 0.0000000000  Biso 1.0 Yb
