# AFLOW.org Repositories
# Au4Zr1   [ORC,ORC,oP20] (STD_PRIM doi:10
data_Au4Zr1
_pd_phase_name Au4Zr1
_cell_length_a  4.9385703264
_cell_length_b  5.0880364596
_cell_length_c  14.5209275929
_cell_angle_alpha  90.0000000000
_cell_angle_beta  90.0000000000
_cell_angle_gamma  90.0000000000
_symmetry_space_group_name_H-M  'P1'
_symmetry_Int_Tables_Number  1
loop_
_symmetry_equiv_pos_site_id
_symmetry_equiv_pos_as_xyz
  1  x,y,z
loop_
 _atom_site_label
 _atom_site_occupancy
 _atom_site_fract_x
 _atom_site_fract_y
 _atom_site_fract_z
 _atom_site_thermal_displace_type
 _atom_site_B_iso_or_equiv
 _atom_site_type_symbol
Au1 1.0000000000 0.2500000000 0.1621621155 0.0000000000  Biso 1.0 Au
Au2 1.0000000000 0.7500000000 0.3378378845 0.4999899197  Biso 1.0 Au
Au3 1.0000000000 0.7500000000 0.8378378845 0.0000000000  Biso 1.0 Au
Au4 1.0000000000 0.2500000000 0.6621621155 0.5000100803  Biso 1.0 Au
Au5 1.0000000000 0.2500000000 0.1590081423 0.7984158115  Biso 1.0 Au
Au6 1.0000000000 0.7500000000 0.3409918577 0.2984158115  Biso 1.0 Au
Au7 1.0000000000 0.7500000000 0.8409918577 0.2015841885  Biso 1.0 Au
Au8 1.0000000000 0.2500000000 0.6590081423 0.7015841885  Biso 1.0 Au
Au9 1.0000000000 0.2500000000 0.1608690221 0.3987549551  Biso 1.0 Au
Au10 1.0000000000 0.7500000000 0.3391309779 0.8987549551  Biso 1.0 Au
Au11 1.0000000000 0.7500000000 0.8391309779 0.6012450449  Biso 1.0 Au
Au12 1.0000000000 0.2500000000 0.6608690221 0.1012450449  Biso 1.0 Au
Au13 1.0000000000 0.2500000000 0.6731799709 0.3026932395  Biso 1.0 Au
Au14 1.0000000000 0.7500000000 0.8268200291 0.8026932395  Biso 1.0 Au
Au15 1.0000000000 0.7500000000 0.3268200291 0.6973067605  Biso 1.0 Au
Au16 1.0000000000 0.2500000000 0.1731799709 0.1973067605  Biso 1.0 Au
Zr17 1.0000000000 0.2500000000 0.6582953968 0.9022201668  Biso 1.0 Zr
Zr18 1.0000000000 0.7500000000 0.8417046032 0.4022201668  Biso 1.0 Zr
Zr19 1.0000000000 0.7500000000 0.3417046032 0.0977798332  Biso 1.0 Zr
Zr20 1.0000000000 0.2500000000 0.1582953968 0.5977798332  Biso 1.0 Zr
