# AFLOW.org Repositories
# Au7Cd16Na6   [FCC,FCC,cF116] (STD_PRIM d
data_Au7Cd16Na6
_pd_phase_name Au7Cd16Na6
_cell_length_a  9.8060014336
_cell_length_b  9.8060014336
_cell_length_c  9.8060014336
_cell_angle_alpha  60.0000000000
_cell_angle_beta  60.0000000000
_cell_angle_gamma  60.0000000000
_symmetry_space_group_name_H-M  'P1'
_symmetry_Int_Tables_Number  1
loop_
_symmetry_equiv_pos_site_id
_symmetry_equiv_pos_as_xyz
  1  x,y,z
loop_
 _atom_site_label
 _atom_site_occupancy
 _atom_site_fract_x
 _atom_site_fract_y
 _atom_site_fract_z
 _atom_site_thermal_displace_type
 _atom_site_B_iso_or_equiv
 _atom_site_type_symbol
Au1 1.0000000000 0.5000000000 0.5000000000 0.5000000000  Biso 1.0 Au
Au2 1.0000000000 0.0000000000 0.5000000000 0.0000000000  Biso 1.0 Au
Au3 1.0000000000 0.5000000000 0.0000000000 0.5000000000  Biso 1.0 Au
Au4 1.0000000000 0.5000000000 0.5000000000 0.0000000000  Biso 1.0 Au
Au5 1.0000000000 0.0000000000 0.0000000000 0.5000000000  Biso 1.0 Au
Au6 1.0000000000 0.0000000000 0.5000000000 0.5000000000  Biso 1.0 Au
Au7 1.0000000000 0.5000000000 0.0000000000 0.0000000000  Biso 1.0 Au
Cd8 1.0000000000 0.8558696180 0.3813767940 0.3813767940  Biso 1.0 Cd
Cd9 1.0000000000 0.3813767940 0.3813767940 0.8558696180  Biso 1.0 Cd
Cd10 1.0000000000 0.3813767940 0.3813767940 0.3813767940  Biso 1.0 Cd
Cd11 1.0000000000 0.3813767940 0.8558696180 0.3813767940  Biso 1.0 Cd
Cd12 1.0000000000 0.1441303820 0.6186232060 0.6186232060  Biso 1.0 Cd
Cd13 1.0000000000 0.6186232060 0.6186232060 0.1441303820  Biso 1.0 Cd
Cd14 1.0000000000 0.6186232060 0.1441303820 0.6186232060  Biso 1.0 Cd
Cd15 1.0000000000 0.6186232060 0.6186232060 0.6186232060  Biso 1.0 Cd
Cd16 1.0000000000 0.1638509845 0.1638509845 0.1638509845  Biso 1.0 Cd
Cd17 1.0000000000 0.1638509845 0.5084470464 0.1638509845  Biso 1.0 Cd
Cd18 1.0000000000 0.5084470464 0.1638509845 0.1638509845  Biso 1.0 Cd
Cd19 1.0000000000 0.1638509845 0.1638509845 0.5084470464  Biso 1.0 Cd
Cd20 1.0000000000 0.8361490155 0.4915529536 0.8361490155  Biso 1.0 Cd
Cd21 1.0000000000 0.8361490155 0.8361490155 0.8361490155  Biso 1.0 Cd
Cd22 1.0000000000 0.4915529536 0.8361490155 0.8361490155  Biso 1.0 Cd
Cd23 1.0000000000 0.8361490155 0.8361490155 0.4915529536  Biso 1.0 Cd
Na24 1.0000000000 0.7919842625 0.7919842625 0.2080157375  Biso 1.0 Na
Na25 1.0000000000 0.2080157375 0.2080157375 0.7919842625  Biso 1.0 Na
Na26 1.0000000000 0.2080157375 0.7919842625 0.7919842625  Biso 1.0 Na
Na27 1.0000000000 0.7919842625 0.2080157375 0.2080157375  Biso 1.0 Na
Na28 1.0000000000 0.2080157375 0.7919842625 0.2080157375  Biso 1.0 Na
Na29 1.0000000000 0.7919842625 0.2080157375 0.7919842625  Biso 1.0 Na
