# AFLOW.org Repositories
# B1C2Sc2   [BCT,BCT2,tI10] (STD_PRIM doi:
data_B1C2Sc2
_pd_phase_name B1C2Sc2
_cell_length_a  5.9225263428
_cell_length_b  5.9225263428
_cell_length_c  5.9225263428
_cell_angle_alpha  146.8307276420
_cell_angle_beta  146.8307276420
_cell_angle_gamma  47.6144831016
_symmetry_space_group_name_H-M  'P1'
_symmetry_Int_Tables_Number  1
loop_
_symmetry_equiv_pos_site_id
_symmetry_equiv_pos_as_xyz
  1  x,y,z
loop_
 _atom_site_label
 _atom_site_occupancy
 _atom_site_fract_x
 _atom_site_fract_y
 _atom_site_fract_z
 _atom_site_thermal_displace_type
 _atom_site_B_iso_or_equiv
 _atom_site_type_symbol
B1 1.0000000000 0.0000000000 0.0000000000 0.0000000000  Biso 1.0 B
C2 1.0000000000 0.8627208088 0.8627208088 0.0000000000  Biso 1.0 C
C3 1.0000000000 0.1372791912 0.1372791912 0.0000000000  Biso 1.0 C
Sc4 1.0000000000 0.6519532889 0.6519532889 0.0000000000  Biso 1.0 Sc
Sc5 1.0000000000 0.3480467111 0.3480467111 0.0000000000  Biso 1.0 Sc
