# AFLOW.org Repositories
# B1C5   [ORCI,ORCI,oI12] (STD_PRIM doi:10
data_B1C5
_pd_phase_name B1C5
_cell_length_a  4.4678208229
_cell_length_b  4.4678208229
_cell_length_c  4.4678208229
_cell_angle_alpha  147.4516610553
_cell_angle_beta  130.5895994786
_cell_angle_gamma  60.4242232571
_symmetry_space_group_name_H-M  'P1'
_symmetry_Int_Tables_Number  1
loop_
_symmetry_equiv_pos_site_id
_symmetry_equiv_pos_as_xyz
  1  x,y,z
loop_
 _atom_site_label
 _atom_site_occupancy
 _atom_site_fract_x
 _atom_site_fract_y
 _atom_site_fract_z
 _atom_site_thermal_displace_type
 _atom_site_B_iso_or_equiv
 _atom_site_type_symbol
B1 1.0000000000 0.4755463212 0.5000000000 0.9755463212  Biso 1.0 B
C2 1.0000000000 0.8888484645 0.6723704130 0.2164780516  Biso 1.0 C
C3 1.0000000000 0.5441076386 0.3276295870 0.2164780516  Biso 1.0 C
C4 1.0000000000 0.1266235611 0.1684857360 0.9581378251  Biso 1.0 C
C5 1.0000000000 0.7896520891 0.8315142640 0.9581378251  Biso 1.0 C
C6 1.0000000000 0.1751219254 0.0000000000 0.1751219254  Biso 1.0 C
