# AFLOW.org Repositories
# B1H4Na1   [CUB,CUB,cP24] (STD_PRIM doi:1
data_B1H4Na1
_pd_phase_name B1H4Na1
_cell_length_a  6.0456125119
_cell_length_b  6.0456125119
_cell_length_c  6.0456125119
_cell_angle_alpha  90.0000000000
_cell_angle_beta  90.0000000000
_cell_angle_gamma  90.0000000000
_symmetry_space_group_name_H-M  'P1'
_symmetry_Int_Tables_Number  1
loop_
_symmetry_equiv_pos_site_id
_symmetry_equiv_pos_as_xyz
  1  x,y,z
loop_
 _atom_site_label
 _atom_site_occupancy
 _atom_site_fract_x
 _atom_site_fract_y
 _atom_site_fract_z
 _atom_site_thermal_displace_type
 _atom_site_B_iso_or_equiv
 _atom_site_type_symbol
B1 1.0000000000 0.5000000000 0.5000000000 0.5000000000  Biso 1.0 B
B2 1.0000000000 0.0000000000 0.5000000000 0.0000000000  Biso 1.0 B
B3 1.0000000000 0.0000000000 0.0000000000 0.5000000000  Biso 1.0 B
B4 1.0000000000 0.5000000000 0.0000000000 0.0000000000  Biso 1.0 B
H5 1.0000000000 0.3828511739 0.3828511739 0.6171488261  Biso 1.0 H
H6 1.0000000000 0.6171488261 0.6171488261 0.6171488261  Biso 1.0 H
H7 1.0000000000 0.6171488261 0.3828511739 0.3828511739  Biso 1.0 H
H8 1.0000000000 0.3828511739 0.6171488261 0.3828511739  Biso 1.0 H
H9 1.0000000000 0.1169654692 0.1169654692 0.3836205132  Biso 1.0 H
H10 1.0000000000 0.8830345308 0.8830345308 0.3836205132  Biso 1.0 H
H11 1.0000000000 0.8830345308 0.1169654692 0.6163794868  Biso 1.0 H
H12 1.0000000000 0.1169654692 0.8830345308 0.6163794868  Biso 1.0 H
H13 1.0000000000 0.6163794868 0.1169654692 0.8830345308  Biso 1.0 H
H14 1.0000000000 0.6163794868 0.8830345308 0.1169654692  Biso 1.0 H
H15 1.0000000000 0.3836205132 0.8830345308 0.8830345308  Biso 1.0 H
H16 1.0000000000 0.3836205132 0.1169654692 0.1169654692  Biso 1.0 H
H17 1.0000000000 0.1169654692 0.6163794868 0.8830345308  Biso 1.0 H
H18 1.0000000000 0.8830345308 0.6163794868 0.1169654692  Biso 1.0 H
H19 1.0000000000 0.1169654692 0.3836205132 0.1169654692  Biso 1.0 H
H20 1.0000000000 0.8830345308 0.3836205132 0.8830345308  Biso 1.0 H
Na21 1.0000000000 0.0000000000 0.0000000000 0.0000000000  Biso 1.0 Na
Na22 1.0000000000 0.5000000000 0.5000000000 0.0000000000  Biso 1.0 Na
Na23 1.0000000000 0.0000000000 0.5000000000 0.5000000000  Biso 1.0 Na
Na24 1.0000000000 0.5000000000 0.0000000000 0.5000000000  Biso 1.0 Na
