# AFLOW.org Repositories
# B1Ni6Si2   [HEX,HEX,hP9] (STD_PRIM doi:1
data_B1Ni6Si2
_pd_phase_name B1Ni6Si2
_cell_length_a  6.0648467822
_cell_length_b  6.0648467822
_cell_length_c  2.8560937553
_cell_angle_alpha  90.0000000000
_cell_angle_beta  90.0000000000
_cell_angle_gamma  120.0000000000
_symmetry_space_group_name_H-M  'P1'
_symmetry_Int_Tables_Number  1
loop_
_symmetry_equiv_pos_site_id
_symmetry_equiv_pos_as_xyz
  1  x,y,z
loop_
 _atom_site_label
 _atom_site_occupancy
 _atom_site_fract_x
 _atom_site_fract_y
 _atom_site_fract_z
 _atom_site_thermal_displace_type
 _atom_site_B_iso_or_equiv
 _atom_site_type_symbol
B1 1.0000000000 0.0000000000 0.0000000000 0.5000000000  Biso 1.0 B
Ni2 1.0000000000 0.7569178633 0.7569178633 0.0000000000  Biso 1.0 Ni
Ni3 1.0000000000 0.2431016172 0.0000000000 0.0000000000  Biso 1.0 Ni
Ni4 1.0000000000 0.0000000000 0.2433167800 0.0000000000  Biso 1.0 Ni
Ni5 1.0000000000 0.3918902479 0.3918902479 0.5000000000  Biso 1.0 Ni
Ni6 1.0000000000 0.6081664161 0.0000000000 0.5000000000  Biso 1.0 Ni
Ni7 1.0000000000 0.0000000000 0.6079048009 0.5000000000  Biso 1.0 Ni
Si8 1.0000000000 0.3333448861 0.6666611828 0.0000000000  Biso 1.0 Si
Si9 1.0000000000 0.6666551139 0.3333162967 0.0000000000  Biso 1.0 Si
