# AFLOW.org Repositories
# B1Pt2Y1   [HEX,HEX,hP12] (STD_PRIM doi:1
data_B1Pt2Y1
_pd_phase_name B1Pt2Y1
_cell_length_a  5.3302491006
_cell_length_b  5.3302491006
_cell_length_c  7.9831142711
_cell_angle_alpha  90.0000000000
_cell_angle_beta  90.0000000000
_cell_angle_gamma  120.0000000000
_symmetry_space_group_name_H-M  'P1'
_symmetry_Int_Tables_Number  1
loop_
_symmetry_equiv_pos_site_id
_symmetry_equiv_pos_as_xyz
  1  x,y,z
loop_
 _atom_site_label
 _atom_site_occupancy
 _atom_site_fract_x
 _atom_site_fract_y
 _atom_site_fract_z
 _atom_site_thermal_displace_type
 _atom_site_B_iso_or_equiv
 _atom_site_type_symbol
B1 1.0000000000 0.5000000000 0.5000000000 0.5000000000  Biso 1.0 B
B2 1.0000000000 0.5000000000 0.0000000000 0.1666666667  Biso 1.0 B
B3 1.0000000000 0.0000000000 0.5000000000 0.8333333333  Biso 1.0 B
Pt4 1.0000000000 0.1536867495 0.8463132505 0.0000000000  Biso 1.0 Pt
Pt5 1.0000000000 0.1536867495 0.3073734990 0.6666666667  Biso 1.0 Pt
Pt6 1.0000000000 0.6926265010 0.8463132505 0.3333333333  Biso 1.0 Pt
Pt7 1.0000000000 0.8463132505 0.1536867495 0.0000000000  Biso 1.0 Pt
Pt8 1.0000000000 0.8463132505 0.6926265010 0.6666666667  Biso 1.0 Pt
Pt9 1.0000000000 0.3073734990 0.1536867495 0.3333333333  Biso 1.0 Pt
Y10 1.0000000000 0.5000000000 0.5000000000 0.0000000000  Biso 1.0 Y
Y11 1.0000000000 0.5000000000 0.0000000000 0.6666666667  Biso 1.0 Y
Y12 1.0000000000 0.0000000000 0.5000000000 0.3333333333  Biso 1.0 Y
