# AFLOW.org Repositories
# B2Mo2Ru1   [ORC,ORC,oP20] (STD_PRIM doi:
data_B2Mo2Ru1
_pd_phase_name B2Mo2Ru1
_cell_length_a  3.0988720131
_cell_length_b  7.5445460382
_cell_length_c  9.6471861800
_cell_angle_alpha  90.0000000000
_cell_angle_beta  90.0000000000
_cell_angle_gamma  90.0000000000
_symmetry_space_group_name_H-M  'P1'
_symmetry_Int_Tables_Number  1
loop_
_symmetry_equiv_pos_site_id
_symmetry_equiv_pos_as_xyz
  1  x,y,z
loop_
 _atom_site_label
 _atom_site_occupancy
 _atom_site_fract_x
 _atom_site_fract_y
 _atom_site_fract_z
 _atom_site_thermal_displace_type
 _atom_site_B_iso_or_equiv
 _atom_site_type_symbol
B1 1.0000000000 0.0000000000 0.3852599290 0.0401913546  Biso 1.0 B
B2 1.0000000000 0.0000000000 0.6147400710 0.9598086454  Biso 1.0 B
B3 1.0000000000 0.5000000000 0.8852599290 0.4598086454  Biso 1.0 B
B4 1.0000000000 0.5000000000 0.1147400710 0.5401913546  Biso 1.0 B
B5 1.0000000000 0.0000000000 0.3775925320 0.2331256085  Biso 1.0 B
B6 1.0000000000 0.0000000000 0.6224074680 0.7668743915  Biso 1.0 B
B7 1.0000000000 0.5000000000 0.8775925320 0.2668743915  Biso 1.0 B
B8 1.0000000000 0.5000000000 0.1224074680 0.7331256085  Biso 1.0 B
Mo9 1.0000000000 0.0000000000 0.6902574390 0.3696458061  Biso 1.0 Mo
Mo10 1.0000000000 0.0000000000 0.3097425610 0.6303541939  Biso 1.0 Mo
Mo11 1.0000000000 0.5000000000 0.1902574390 0.1303541939  Biso 1.0 Mo
Mo12 1.0000000000 0.5000000000 0.8097425610 0.8696458061  Biso 1.0 Mo
Mo13 1.0000000000 0.0000000000 0.9232139729 0.6390285034  Biso 1.0 Mo
Mo14 1.0000000000 0.0000000000 0.0767860271 0.3609714966  Biso 1.0 Mo
Mo15 1.0000000000 0.5000000000 0.4232139729 0.8609714966  Biso 1.0 Mo
Mo16 1.0000000000 0.5000000000 0.5767860271 0.1390285034  Biso 1.0 Mo
Ru17 1.0000000000 0.0000000000 0.8808088264 0.1076033956  Biso 1.0 Ru
Ru18 1.0000000000 0.0000000000 0.1191911736 0.8923966044  Biso 1.0 Ru
Ru19 1.0000000000 0.5000000000 0.3808088264 0.3923966044  Biso 1.0 Ru
Ru20 1.0000000000 0.5000000000 0.6191911736 0.6076033956  Biso 1.0 Ru
