# AFLOW.org Repositories
# B2W1   [HEX,HEX,hP12] (STD_PRIM doi:10.1
data_B2W1
_pd_phase_name B2W1
_cell_length_a  3.0286833489
_cell_length_b  3.0286833489
_cell_length_c  14.1448879802
_cell_angle_alpha  90.0000000000
_cell_angle_beta  90.0000000000
_cell_angle_gamma  120.0000000000
_symmetry_space_group_name_H-M  'P1'
_symmetry_Int_Tables_Number  1
loop_
_symmetry_equiv_pos_site_id
_symmetry_equiv_pos_as_xyz
  1  x,y,z
loop_
 _atom_site_label
 _atom_site_occupancy
 _atom_site_fract_x
 _atom_site_fract_y
 _atom_site_fract_z
 _atom_site_thermal_displace_type
 _atom_site_B_iso_or_equiv
 _atom_site_type_symbol
B1 1.0000000000 0.6666706875 0.3333413749 0.9771798722  Biso 1.0 B
B2 1.0000000000 0.3333293125 0.6666586251 0.4771798722  Biso 1.0 B
B3 1.0000000000 0.3333293125 0.6666586251 0.0228201278  Biso 1.0 B
B4 1.0000000000 0.6666706875 0.3333413749 0.5228201278  Biso 1.0 B
B5 1.0000000000 0.6666659784 0.3333319568 0.7500000000  Biso 1.0 B
B6 1.0000000000 0.3333340216 0.6666680432 0.2500000000  Biso 1.0 B
B7 1.0000000000 0.0000000000 0.0000000000 0.2500000000  Biso 1.0 B
B8 1.0000000000 0.0000000000 0.0000000000 0.7500000000  Biso 1.0 B
W9 1.0000000000 0.6666680257 0.3333360515 0.1348700821  Biso 1.0 W
W10 1.0000000000 0.3333319743 0.6666639485 0.6348700821  Biso 1.0 W
W11 1.0000000000 0.3333319743 0.6666639485 0.8651299179  Biso 1.0 W
W12 1.0000000000 0.6666680257 0.3333360515 0.3651299179  Biso 1.0 W
