# AFLOW.org Repositories
# B3Os2   [HEX,HEX,hP10] (STD_PRIM doi:10.
data_B3Os2
_pd_phase_name B3Os2
_cell_length_a  2.9340509920
_cell_length_b  2.9340509920
_cell_length_c  12.9414837398
_cell_angle_alpha  90.0000000000
_cell_angle_beta  90.0000000000
_cell_angle_gamma  120.0000000000
_symmetry_space_group_name_H-M  'P1'
_symmetry_Int_Tables_Number  1
loop_
_symmetry_equiv_pos_site_id
_symmetry_equiv_pos_as_xyz
  1  x,y,z
loop_
 _atom_site_label
 _atom_site_occupancy
 _atom_site_fract_x
 _atom_site_fract_y
 _atom_site_fract_z
 _atom_site_thermal_displace_type
 _atom_site_B_iso_or_equiv
 _atom_site_type_symbol
B1 1.0000000000 0.6666667508 0.3333335017 0.9690809908  Biso 1.0 B
B2 1.0000000000 0.3333332492 0.6666664983 0.4690809908  Biso 1.0 B
B3 1.0000000000 0.3333332492 0.6666664983 0.0309190092  Biso 1.0 B
B4 1.0000000000 0.6666667508 0.3333335017 0.5309190092  Biso 1.0 B
B5 1.0000000000 0.6666668222 0.3333336444 0.7500000000  Biso 1.0 B
B6 1.0000000000 0.3333331778 0.6666663556 0.2500000000  Biso 1.0 B
Os7 1.0000000000 0.6666663883 0.3333327767 0.1398358599  Biso 1.0 Os
Os8 1.0000000000 0.3333336117 0.6666672233 0.6398358599  Biso 1.0 Os
Os9 1.0000000000 0.3333336117 0.6666672233 0.8601641401  Biso 1.0 Os
Os10 1.0000000000 0.6666663883 0.3333327767 0.3601641401  Biso 1.0 Os
