# AFLOW.org Repositories
# B7W1Y3   [ORCC,ORCC,oS44] (STD_PRIM doi:
data_B7W1Y3
_pd_phase_name B7W1Y3
_cell_length_a  8.1956170718
_cell_length_b  8.1956170718
_cell_length_c  9.5051441618
_cell_angle_alpha  90.0000000000
_cell_angle_beta  90.0000000000
_cell_angle_gamma  155.4824473582
_symmetry_space_group_name_H-M  'P1'
_symmetry_Int_Tables_Number  1
loop_
_symmetry_equiv_pos_site_id
_symmetry_equiv_pos_as_xyz
  1  x,y,z
loop_
 _atom_site_label
 _atom_site_occupancy
 _atom_site_fract_x
 _atom_site_fract_y
 _atom_site_fract_z
 _atom_site_thermal_displace_type
 _atom_site_B_iso_or_equiv
 _atom_site_type_symbol
B1 1.0000000000 0.7274568997 0.2725431003 0.9667342694  Biso 1.0 B
B2 1.0000000000 0.2725431003 0.7274568997 0.4667342694  Biso 1.0 B
B3 1.0000000000 0.7274568997 0.2725431003 0.5332657306  Biso 1.0 B
B4 1.0000000000 0.2725431003 0.7274568997 0.0332657306  Biso 1.0 B
B5 1.0000000000 0.6347652675 0.3652347325 0.6470847475  Biso 1.0 B
B6 1.0000000000 0.3652347325 0.6347652675 0.1470847475  Biso 1.0 B
B7 1.0000000000 0.6347652675 0.3652347325 0.8529152525  Biso 1.0 B
B8 1.0000000000 0.3652347325 0.6347652675 0.3529152525  Biso 1.0 B
B9 1.0000000000 0.5195758721 0.4804241279 0.5918162634  Biso 1.0 B
B10 1.0000000000 0.4804241279 0.5195758721 0.0918162634  Biso 1.0 B
B11 1.0000000000 0.5195758721 0.4804241279 0.9081837366  Biso 1.0 B
B12 1.0000000000 0.4804241279 0.5195758721 0.4081837366  Biso 1.0 B
B13 1.0000000000 0.4559175931 0.5440824069 0.7500000000  Biso 1.0 B
B14 1.0000000000 0.5440824069 0.4559175931 0.2500000000  Biso 1.0 B
W15 1.0000000000 0.0534350500 0.9465649500 0.7500000000  Biso 1.0 W
W16 1.0000000000 0.9465649500 0.0534350500 0.2500000000  Biso 1.0 W
Y17 1.0000000000 0.8931178176 0.1068821824 0.9398532454  Biso 1.0 Y
Y18 1.0000000000 0.1068821824 0.8931178176 0.4398532454  Biso 1.0 Y
Y19 1.0000000000 0.8931178176 0.1068821824 0.5601467546  Biso 1.0 Y
Y20 1.0000000000 0.1068821824 0.8931178176 0.0601467546  Biso 1.0 Y
Y21 1.0000000000 0.2439687732 0.7560312268 0.7500000000  Biso 1.0 Y
Y22 1.0000000000 0.7560312268 0.2439687732 0.2500000000  Biso 1.0 Y
