# AFLOW.org Repositories
# B8Nb7Ru6   [HEX,HEX,hP21] (STD_PRIM doi:
data_B8Nb7Ru6
_pd_phase_name B8Nb7Ru6
_cell_length_a  9.6025382790
_cell_length_b  9.6025382790
_cell_length_c  3.1273139318
_cell_angle_alpha  90.0000000000
_cell_angle_beta  90.0000000000
_cell_angle_gamma  120.0000000000
_symmetry_space_group_name_H-M  'P1'
_symmetry_Int_Tables_Number  1
loop_
_symmetry_equiv_pos_site_id
_symmetry_equiv_pos_as_xyz
  1  x,y,z
loop_
 _atom_site_label
 _atom_site_occupancy
 _atom_site_fract_x
 _atom_site_fract_y
 _atom_site_fract_z
 _atom_site_thermal_displace_type
 _atom_site_B_iso_or_equiv
 _atom_site_type_symbol
B1 1.0000000000 0.3333327422 0.6666730562 0.0000000000  Biso 1.0 B
B2 1.0000000000 0.6666672578 0.3333269438 0.0000000000  Biso 1.0 B
B3 1.0000000000 0.2182370016 0.0658093960 0.5000000000  Biso 1.0 B
B4 1.0000000000 0.9341998732 0.1524255366 0.5000000000  Biso 1.0 B
B5 1.0000000000 0.8475808517 0.7817689584 0.5000000000  Biso 1.0 B
B6 1.0000000000 0.7817629984 0.9341906040 0.5000000000  Biso 1.0 B
B7 1.0000000000 0.0658001268 0.8475744634 0.5000000000  Biso 1.0 B
B8 1.0000000000 0.1524191483 0.2182310416 0.5000000000  Biso 1.0 B
Nb9 1.0000000000 0.0000000000 0.0000000000 0.0000000000  Biso 1.0 Nb
Nb10 1.0000000000 0.0855922186 0.3630814643 0.0000000000  Biso 1.0 Nb
Nb11 1.0000000000 0.6369149585 0.7225032809 0.0000000000  Biso 1.0 Nb
Nb12 1.0000000000 0.2774876225 0.9144004153 0.0000000000  Biso 1.0 Nb
Nb13 1.0000000000 0.9144077814 0.6369185357 0.0000000000  Biso 1.0 Nb
Nb14 1.0000000000 0.3630850415 0.2774967191 0.0000000000  Biso 1.0 Nb
Nb15 1.0000000000 0.7225123775 0.0855995847 0.0000000000  Biso 1.0 Nb
Ru16 1.0000000000 0.5143688179 0.1549242706 0.5000000000  Biso 1.0 Ru
Ru17 1.0000000000 0.8450854293 0.3594578020 0.5000000000  Biso 1.0 Ru
Ru18 1.0000000000 0.6405527584 0.4856299324 0.5000000000  Biso 1.0 Ru
Ru19 1.0000000000 0.4856311821 0.8450757294 0.5000000000  Biso 1.0 Ru
Ru20 1.0000000000 0.1549145707 0.6405421980 0.5000000000  Biso 1.0 Ru
Ru21 1.0000000000 0.3594472416 0.5143700676 0.5000000000  Biso 1.0 Ru
