# AFLOW.org Repositories
# Ba1Cu2Sb2   [TET,TET,tP10] (STD_PRIM doi
data_Ba1Cu2Sb2
_pd_phase_name Ba1Cu2Sb2
_cell_length_a  4.7094398881
_cell_length_b  4.7094398881
_cell_length_c  10.9245118330
_cell_angle_alpha  90.0000000000
_cell_angle_beta  90.0000000000
_cell_angle_gamma  90.0000000000
_symmetry_space_group_name_H-M  'P1'
_symmetry_Int_Tables_Number  1
loop_
_symmetry_equiv_pos_site_id
_symmetry_equiv_pos_as_xyz
  1  x,y,z
loop_
 _atom_site_label
 _atom_site_occupancy
 _atom_site_fract_x
 _atom_site_fract_y
 _atom_site_fract_z
 _atom_site_thermal_displace_type
 _atom_site_B_iso_or_equiv
 _atom_site_type_symbol
Ba1 1.0000000000 0.2500000000 0.2500000000 0.2388157830  Biso 1.0 Ba
Ba2 1.0000000000 0.7500000000 0.7500000000 0.7611842170  Biso 1.0 Ba
Cu3 1.0000000000 0.7500000000 0.2500000000 0.0000000000  Biso 1.0 Cu
Cu4 1.0000000000 0.2500000000 0.7500000000 0.0000000000  Biso 1.0 Cu
Cu5 1.0000000000 0.2500000000 0.2500000000 0.6316899512  Biso 1.0 Cu
Cu6 1.0000000000 0.7500000000 0.7500000000 0.3683100488  Biso 1.0 Cu
Sb7 1.0000000000 0.7500000000 0.2500000000 0.5000000000  Biso 1.0 Sb
Sb8 1.0000000000 0.2500000000 0.7500000000 0.5000000000  Biso 1.0 Sb
Sb9 1.0000000000 0.2500000000 0.2500000000 0.8740614912  Biso 1.0 Sb
Sb10 1.0000000000 0.7500000000 0.7500000000 0.1259385088  Biso 1.0 Sb
