# AFLOW.org Repositories
# Ba1Cu1Sb1   [HEX,HEX,hP6] (STD_PRIM doi:
data_Ba1Cu1Sb1
_pd_phase_name Ba1Cu1Sb1
_cell_length_a  4.6543003729
_cell_length_b  4.6543003729
_cell_length_c  9.4929525154
_cell_angle_alpha  90.0000000000
_cell_angle_beta  90.0000000000
_cell_angle_gamma  120.0000000000
_symmetry_space_group_name_H-M  'P1'
_symmetry_Int_Tables_Number  1
loop_
_symmetry_equiv_pos_site_id
_symmetry_equiv_pos_as_xyz
  1  x,y,z
loop_
 _atom_site_label
 _atom_site_occupancy
 _atom_site_fract_x
 _atom_site_fract_y
 _atom_site_fract_z
 _atom_site_thermal_displace_type
 _atom_site_B_iso_or_equiv
 _atom_site_type_symbol
Ba1 1.0000000000 0.0000000000 0.0000000000 0.0000000000  Biso 1.0 Ba
Ba2 1.0000000000 0.0000000000 0.0000000000 0.5000000000  Biso 1.0 Ba
Cu3 1.0000000000 0.3333759217 0.6666879609 0.2500000000  Biso 1.0 Cu
Cu4 1.0000000000 0.6666240783 0.3333120391 0.7500000000  Biso 1.0 Cu
Sb5 1.0000000000 0.3333672353 0.6666836176 0.7500000000  Biso 1.0 Sb
Sb6 1.0000000000 0.6666327647 0.3333163824 0.2500000000  Biso 1.0 Sb
