# AFLOW.org Repositories
# Ba1Cu2Se2   [BCT,BCT2,tI10] (STD_PRIM do
data_Ba1Cu2Se2
_pd_phase_name Ba1Cu2Se2
_cell_length_a  7.2341493585
_cell_length_b  7.2341493585
_cell_length_c  7.2341493585
_cell_angle_alpha  147.2220509568
_cell_angle_beta  147.2220509568
_cell_angle_gamma  47.0351116694
_symmetry_space_group_name_H-M  'P1'
_symmetry_Int_Tables_Number  1
loop_
_symmetry_equiv_pos_site_id
_symmetry_equiv_pos_as_xyz
  1  x,y,z
loop_
 _atom_site_label
 _atom_site_occupancy
 _atom_site_fract_x
 _atom_site_fract_y
 _atom_site_fract_z
 _atom_site_thermal_displace_type
 _atom_site_B_iso_or_equiv
 _atom_site_type_symbol
Ba1 1.0000000000 0.0000000000 0.0000000000 0.0000000000  Biso 1.0 Ba
Cu2 1.0000000000 0.7500000000 0.2500000000 0.5000000000  Biso 1.0 Cu
Cu3 1.0000000000 0.2500000000 0.7500000000 0.5000000000  Biso 1.0 Cu
Se4 1.0000000000 0.3629185189 0.3629185189 0.0000000000  Biso 1.0 Se
Se5 1.0000000000 0.6370814811 0.6370814811 0.0000000000  Biso 1.0 Se
