# AFLOW.org Repositories
# Ba1Ge12Pt4   [BCC,BCC,cI34] (STD_PRIM do
data_Ba1Ge12Pt4
_pd_phase_name Ba1Ge12Pt4
_cell_length_a  7.5941851727
_cell_length_b  7.5941851727
_cell_length_c  7.5941851727
_cell_angle_alpha  109.4712206345
_cell_angle_beta  109.4712206345
_cell_angle_gamma  109.4712206345
_symmetry_space_group_name_H-M  'P1'
_symmetry_Int_Tables_Number  1
loop_
_symmetry_equiv_pos_site_id
_symmetry_equiv_pos_as_xyz
  1  x,y,z
loop_
 _atom_site_label
 _atom_site_occupancy
 _atom_site_fract_x
 _atom_site_fract_y
 _atom_site_fract_z
 _atom_site_thermal_displace_type
 _atom_site_B_iso_or_equiv
 _atom_site_type_symbol
Ba1 1.0000000000 0.0000000000 0.0000000000 0.0000000000  Biso 1.0 Ba
Ge2 1.0000000000 0.4911224707 0.6437928482 0.8473296225  Biso 1.0 Ge
Ge3 1.0000000000 0.7964632256 0.6437928482 0.1526703775  Biso 1.0 Ge
Ge4 1.0000000000 0.2035367744 0.3562071518 0.8473296225  Biso 1.0 Ge
Ge5 1.0000000000 0.5088775293 0.3562071518 0.1526703775  Biso 1.0 Ge
Ge6 1.0000000000 0.8473296225 0.2035367744 0.3562071518  Biso 1.0 Ge
Ge7 1.0000000000 0.1526703775 0.5088775293 0.3562071518  Biso 1.0 Ge
Ge8 1.0000000000 0.8473296225 0.4911224707 0.6437928482  Biso 1.0 Ge
Ge9 1.0000000000 0.1526703775 0.7964632256 0.6437928482  Biso 1.0 Ge
Ge10 1.0000000000 0.6437928482 0.1526703775 0.7964632256  Biso 1.0 Ge
Ge11 1.0000000000 0.6437928482 0.8473296225 0.4911224707  Biso 1.0 Ge
Ge12 1.0000000000 0.3562071518 0.1526703775 0.5088775293  Biso 1.0 Ge
Ge13 1.0000000000 0.3562071518 0.8473296225 0.2035367744  Biso 1.0 Ge
Pt14 1.0000000000 0.5000000000 0.0000000000 0.0000000000  Biso 1.0 Pt
Pt15 1.0000000000 0.0000000000 0.5000000000 0.0000000000  Biso 1.0 Pt
Pt16 1.0000000000 0.0000000000 0.0000000000 0.5000000000  Biso 1.0 Pt
Pt17 1.0000000000 0.5000000000 0.5000000000 0.5000000000  Biso 1.0 Pt
