# AFLOW.org Repositories
# Ba1Nb7O9   [TET,TET,tP17] (STD_PRIM doi:
data_Ba1Nb7O9
_pd_phase_name Ba1Nb7O9
_cell_length_a  4.2366648434
_cell_length_b  4.2366648434
_cell_length_c  12.5645340421
_cell_angle_alpha  90.0000000000
_cell_angle_beta  90.0000000000
_cell_angle_gamma  90.0000000000
_symmetry_space_group_name_H-M  'P1'
_symmetry_Int_Tables_Number  1
loop_
_symmetry_equiv_pos_site_id
_symmetry_equiv_pos_as_xyz
  1  x,y,z
loop_
 _atom_site_label
 _atom_site_occupancy
 _atom_site_fract_x
 _atom_site_fract_y
 _atom_site_fract_z
 _atom_site_thermal_displace_type
 _atom_site_B_iso_or_equiv
 _atom_site_type_symbol
Ba1 1.0000000000 0.0000000000 0.0000000000 0.0000000000  Biso 1.0 Ba
Nb2 1.0000000000 0.5000000000 0.5000000000 0.5000000000  Biso 1.0 Nb
Nb3 1.0000000000 0.5000000000 0.0000000000 0.3288613926  Biso 1.0 Nb
Nb4 1.0000000000 0.0000000000 0.5000000000 0.3288613926  Biso 1.0 Nb
Nb5 1.0000000000 0.5000000000 0.0000000000 0.6711386074  Biso 1.0 Nb
Nb6 1.0000000000 0.0000000000 0.5000000000 0.6711386074  Biso 1.0 Nb
Nb7 1.0000000000 0.5000000000 0.5000000000 0.1684798506  Biso 1.0 Nb
Nb8 1.0000000000 0.5000000000 0.5000000000 0.8315201494  Biso 1.0 Nb
O9 1.0000000000 0.0000000000 0.5000000000 0.5000000000  Biso 1.0 O
O10 1.0000000000 0.5000000000 0.0000000000 0.5000000000  Biso 1.0 O
O11 1.0000000000 0.0000000000 0.0000000000 0.3343248747  Biso 1.0 O
O12 1.0000000000 0.0000000000 0.0000000000 0.6656751253  Biso 1.0 O
O13 1.0000000000 0.0000000000 0.5000000000 0.1612052225  Biso 1.0 O
O14 1.0000000000 0.5000000000 0.0000000000 0.1612052225  Biso 1.0 O
O15 1.0000000000 0.0000000000 0.5000000000 0.8387947775  Biso 1.0 O
O16 1.0000000000 0.5000000000 0.0000000000 0.8387947775  Biso 1.0 O
O17 1.0000000000 0.5000000000 0.5000000000 0.0000000000  Biso 1.0 O
