# AFLOW.org Repositories
# Ba1Ni1Sn3   [BCT,BCT2,tI10] (STD_PRIM do
data_Ba1Ni1Sn3
_pd_phase_name Ba1Ni1Sn3
_cell_length_a  6.5310328098
_cell_length_b  6.5310328098
_cell_length_c  6.5310328098
_cell_angle_alpha  135.7925664300
_cell_angle_beta  135.7925664300
_cell_angle_gamma  64.3011942726
_symmetry_space_group_name_H-M  'P1'
_symmetry_Int_Tables_Number  1
loop_
_symmetry_equiv_pos_site_id
_symmetry_equiv_pos_as_xyz
  1  x,y,z
loop_
 _atom_site_label
 _atom_site_occupancy
 _atom_site_fract_x
 _atom_site_fract_y
 _atom_site_fract_z
 _atom_site_thermal_displace_type
 _atom_site_B_iso_or_equiv
 _atom_site_type_symbol
Ba1 1.0000000000 0.0000000000 0.0000000000 0.0000000000  Biso 1.0 Ba
Ni2 1.0000000000 0.6623570754 0.6623570754 0.0000000000  Biso 1.0 Ni
Sn3 1.0000000000 0.4290545066 0.4290545066 0.0000000000  Biso 1.0 Sn
Sn4 1.0000000000 0.2482337628 0.7482337628 0.5000000000  Biso 1.0 Sn
Sn5 1.0000000000 0.7482337628 0.2482337628 0.5000000000  Biso 1.0 Sn
