# AFLOW.org Repositories
# Ba1Pd1Si1   [CUB,CUB,cP12] (STD_PRIM doi
data_Ba1Pd1Si1
_pd_phase_name Ba1Pd1Si1
_cell_length_a  6.7282032675
_cell_length_b  6.7282032675
_cell_length_c  6.7282032675
_cell_angle_alpha  90.0000000000
_cell_angle_beta  90.0000000000
_cell_angle_gamma  90.0000000000
_symmetry_space_group_name_H-M  'P1'
_symmetry_Int_Tables_Number  1
loop_
_symmetry_equiv_pos_site_id
_symmetry_equiv_pos_as_xyz
  1  x,y,z
loop_
 _atom_site_label
 _atom_site_occupancy
 _atom_site_fract_x
 _atom_site_fract_y
 _atom_site_fract_z
 _atom_site_thermal_displace_type
 _atom_site_B_iso_or_equiv
 _atom_site_type_symbol
Ba1 1.0000000000 0.8667213081 0.8667213081 0.1332786919  Biso 1.0 Ba
Ba2 1.0000000000 0.6332786919 0.1332786919 0.6332786919  Biso 1.0 Ba
Ba3 1.0000000000 0.1332786919 0.3667213081 0.3667213081  Biso 1.0 Ba
Ba4 1.0000000000 0.3667213081 0.6332786919 0.8667213081  Biso 1.0 Ba
Pd5 1.0000000000 0.5947414611 0.5947414611 0.4052585389  Biso 1.0 Pd
Pd6 1.0000000000 0.9052585389 0.4052585389 0.9052585389  Biso 1.0 Pd
Pd7 1.0000000000 0.4052585389 0.0947414611 0.0947414611  Biso 1.0 Pd
Pd8 1.0000000000 0.0947414611 0.9052585389 0.5947414611  Biso 1.0 Pd
Si9 1.0000000000 0.1569244524 0.1569244524 0.8430755476  Biso 1.0 Si
Si10 1.0000000000 0.3430755476 0.8430755476 0.3430755476  Biso 1.0 Si
Si11 1.0000000000 0.8430755476 0.6569244524 0.6569244524  Biso 1.0 Si
Si12 1.0000000000 0.6569244524 0.3430755476 0.1569244524  Biso 1.0 Si
