# AFLOW.org Repositories
# Ba1S3Zr1   [ORC,ORC,oP20] (STD_PRIM doi:
data_Ba1S3Zr1
_pd_phase_name Ba1S3Zr1
_cell_length_a  7.0432517687
_cell_length_b  7.1928696086
_cell_length_c  10.0826205972
_cell_angle_alpha  90.0000000000
_cell_angle_beta  90.0000000000
_cell_angle_gamma  90.0000000000
_symmetry_space_group_name_H-M  'P1'
_symmetry_Int_Tables_Number  1
loop_
_symmetry_equiv_pos_site_id
_symmetry_equiv_pos_as_xyz
  1  x,y,z
loop_
 _atom_site_label
 _atom_site_occupancy
 _atom_site_fract_x
 _atom_site_fract_y
 _atom_site_fract_z
 _atom_site_thermal_displace_type
 _atom_site_B_iso_or_equiv
 _atom_site_type_symbol
Ba1 1.0000000000 0.9879273839 0.0534542634 0.7500000000  Biso 1.0 Ba
Ba2 1.0000000000 0.4879273839 0.4465457366 0.2500000000  Biso 1.0 Ba
Ba3 1.0000000000 0.0120726161 0.9465457366 0.2500000000  Biso 1.0 Ba
Ba4 1.0000000000 0.5120726161 0.5534542634 0.7500000000  Biso 1.0 Ba
S5 1.0000000000 0.4365732385 0.9943683289 0.7500000000  Biso 1.0 S
S6 1.0000000000 0.9365732385 0.5056316711 0.2500000000  Biso 1.0 S
S7 1.0000000000 0.5634267615 0.0056316711 0.2500000000  Biso 1.0 S
S8 1.0000000000 0.0634267615 0.4943683289 0.7500000000  Biso 1.0 S
S9 1.0000000000 0.2080424073 0.2084630264 0.0331590358  Biso 1.0 S
S10 1.0000000000 0.7080424073 0.2915369736 0.9668409642  Biso 1.0 S
S11 1.0000000000 0.7919575927 0.7915369736 0.5331590358  Biso 1.0 S
S12 1.0000000000 0.2919575927 0.7084630264 0.4668409642  Biso 1.0 S
S13 1.0000000000 0.7919575927 0.7915369736 0.9668409642  Biso 1.0 S
S14 1.0000000000 0.2919575927 0.7084630264 0.0331590358  Biso 1.0 S
S15 1.0000000000 0.2080424073 0.2084630264 0.4668409642  Biso 1.0 S
S16 1.0000000000 0.7080424073 0.2915369736 0.5331590358  Biso 1.0 S
Zr17 1.0000000000 0.0000000000 0.5000000000 0.0000000000  Biso 1.0 Zr
Zr18 1.0000000000 0.5000000000 0.0000000000 0.0000000000  Biso 1.0 Zr
Zr19 1.0000000000 0.0000000000 0.5000000000 0.5000000000  Biso 1.0 Zr
Zr20 1.0000000000 0.5000000000 0.0000000000 0.5000000000  Biso 1.0 Zr
