# AFLOW.org Repositories
# Ba2Sb1   [BCT,BCT2,tI12] (STD_PRIM doi:1
data_Ba2Sb1
_pd_phase_name Ba2Sb1
_cell_length_a  10.2232820907
_cell_length_b  10.2232820907
_cell_length_c  10.2232820907
_cell_angle_alpha  150.0322784612
_cell_angle_beta  150.0322784612
_cell_angle_gamma  42.8940237037
_symmetry_space_group_name_H-M  'P1'
_symmetry_Int_Tables_Number  1
loop_
_symmetry_equiv_pos_site_id
_symmetry_equiv_pos_as_xyz
  1  x,y,z
loop_
 _atom_site_label
 _atom_site_occupancy
 _atom_site_fract_x
 _atom_site_fract_y
 _atom_site_fract_z
 _atom_site_thermal_displace_type
 _atom_site_B_iso_or_equiv
 _atom_site_type_symbol
Ba1 1.0000000000 0.0000000000 0.5000000000 0.5000000000  Biso 1.0 Ba
Ba2 1.0000000000 0.5000000000 0.0000000000 0.5000000000  Biso 1.0 Ba
Ba3 1.0000000000 0.3195498883 0.3195498883 0.0000000000  Biso 1.0 Ba
Ba4 1.0000000000 0.6804501117 0.6804501117 0.0000000000  Biso 1.0 Ba
Sb5 1.0000000000 0.1335396401 0.1335396401 0.0000000000  Biso 1.0 Sb
Sb6 1.0000000000 0.8664603599 0.8664603599 0.0000000000  Biso 1.0 Sb
