# AFLOW.org Repositories
# Ba3Mn1N3   [HEX,HEX,hP14] (STD_PRIM doi:
data_Ba3Mn1N3
_pd_phase_name Ba3Mn1N3
_cell_length_a  8.1951522943
_cell_length_b  8.1951522943
_cell_length_c  5.6107459072
_cell_angle_alpha  90.0000000000
_cell_angle_beta  90.0000000000
_cell_angle_gamma  120.0000000000
_symmetry_space_group_name_H-M  'P1'
_symmetry_Int_Tables_Number  1
loop_
_symmetry_equiv_pos_site_id
_symmetry_equiv_pos_as_xyz
  1  x,y,z
loop_
 _atom_site_label
 _atom_site_occupancy
 _atom_site_fract_x
 _atom_site_fract_y
 _atom_site_fract_z
 _atom_site_thermal_displace_type
 _atom_site_B_iso_or_equiv
 _atom_site_type_symbol
Ba1 1.0000000000 0.3650643667 0.2793121239 0.2500000000  Biso 1.0 Ba
Ba2 1.0000000000 0.7206419517 0.0857187322 0.2500000000  Biso 1.0 Ba
Ba3 1.0000000000 0.9143161982 0.6349595609 0.2500000000  Biso 1.0 Ba
Ba4 1.0000000000 0.6349356333 0.7206878761 0.7500000000  Biso 1.0 Ba
Ba5 1.0000000000 0.2793580483 0.9142812678 0.7500000000  Biso 1.0 Ba
Ba6 1.0000000000 0.0856838018 0.3650404391 0.7500000000  Biso 1.0 Ba
Mn7 1.0000000000 0.3333441320 0.6666903441 0.2500000000  Biso 1.0 Mn
Mn8 1.0000000000 0.6666558680 0.3333096559 0.7500000000  Biso 1.0 Mn
N9 1.0000000000 0.1276636210 0.4388767270 0.2500000000  Biso 1.0 N
N10 1.0000000000 0.5611386012 0.6887753661 0.2500000000  Biso 1.0 N
N11 1.0000000000 0.3112298196 0.8722696837 0.2500000000  Biso 1.0 N
N12 1.0000000000 0.8723363790 0.5611232730 0.7500000000  Biso 1.0 N
N13 1.0000000000 0.4388613988 0.3112246339 0.7500000000  Biso 1.0 N
N14 1.0000000000 0.6887701804 0.1277303163 0.7500000000  Biso 1.0 N
