# AFLOW.org Repositories
# Ba3Pb5   [ORCC,ORCC,oS32] (STD_PRIM doi:
data_Ba3Pb5
_pd_phase_name Ba3Pb5
_cell_length_a  7.3067398320
_cell_length_b  7.3067398320
_cell_length_c  11.5366841704
_cell_angle_alpha  90.0000000000
_cell_angle_beta  90.0000000000
_cell_angle_gamma  101.8762235980
_symmetry_space_group_name_H-M  'P1'
_symmetry_Int_Tables_Number  1
loop_
_symmetry_equiv_pos_site_id
_symmetry_equiv_pos_as_xyz
  1  x,y,z
loop_
 _atom_site_label
 _atom_site_occupancy
 _atom_site_fract_x
 _atom_site_fract_y
 _atom_site_fract_z
 _atom_site_thermal_displace_type
 _atom_site_B_iso_or_equiv
 _atom_site_type_symbol
Ba1 1.0000000000 0.3639852611 0.3639852611 0.2500000000  Biso 1.0 Ba
Ba2 1.0000000000 0.6360147389 0.6360147389 0.7500000000  Biso 1.0 Ba
Ba3 1.0000000000 0.7934518325 0.2065481675 0.0000000000  Biso 1.0 Ba
Ba4 1.0000000000 0.2065481675 0.7934518325 0.5000000000  Biso 1.0 Ba
Ba5 1.0000000000 0.2065481675 0.7934518325 0.0000000000  Biso 1.0 Ba
Ba6 1.0000000000 0.7934518325 0.2065481675 0.5000000000  Biso 1.0 Ba
Pb7 1.0000000000 0.9620840914 0.9620840914 0.2500000000  Biso 1.0 Pb
Pb8 1.0000000000 0.0379159086 0.0379159086 0.7500000000  Biso 1.0 Pb
Pb9 1.0000000000 0.6957535103 0.6957535103 0.4454556086  Biso 1.0 Pb
Pb10 1.0000000000 0.3042464897 0.3042464897 0.9454556086  Biso 1.0 Pb
Pb11 1.0000000000 0.6957535103 0.6957535103 0.0545443914  Biso 1.0 Pb
Pb12 1.0000000000 0.3042464897 0.3042464897 0.5545443914  Biso 1.0 Pb
Pb13 1.0000000000 0.5133955828 0.9153769120 0.2500000000  Biso 1.0 Pb
Pb14 1.0000000000 0.4866044172 0.0846230880 0.7500000000  Biso 1.0 Pb
Pb15 1.0000000000 0.9153769120 0.5133955828 0.2500000000  Biso 1.0 Pb
Pb16 1.0000000000 0.0846230880 0.4866044172 0.7500000000  Biso 1.0 Pb
