# AFLOW.org Repositories
# Ba3P4   [ORCF,ORCF1,oF56] (STD_PRIM doi:
data_Ba3P4
_pd_phase_name Ba3P4
_cell_length_a  11.8849641779
_cell_length_b  9.7268279786
_cell_length_c  8.1304657026
_cell_angle_alpha  82.9315492693
_cell_angle_beta  54.3108979950
_cell_angle_gamma  42.7575527357
_symmetry_space_group_name_H-M  'P1'
_symmetry_Int_Tables_Number  1
loop_
_symmetry_equiv_pos_site_id
_symmetry_equiv_pos_as_xyz
  1  x,y,z
loop_
 _atom_site_label
 _atom_site_occupancy
 _atom_site_fract_x
 _atom_site_fract_y
 _atom_site_fract_z
 _atom_site_thermal_displace_type
 _atom_site_B_iso_or_equiv
 _atom_site_type_symbol
Ba1 1.0000000000 0.2532976501 0.7467023499 0.7467023499  Biso 1.0 Ba
Ba2 1.0000000000 0.5030843139 0.9968529426 0.9967954352  Biso 1.0 Ba
Ba3 1.0000000000 0.1697426966 0.6673900465 0.3211605676  Biso 1.0 Ba
Ba4 1.0000000000 0.8416167357 0.3211816953 0.6674387144  Biso 1.0 Ba
Ba5 1.0000000000 0.5825398707 0.0802781773 0.4083084619  Biso 1.0 Ba
Ba6 1.0000000000 0.9287529930 0.4083651422 0.0803691615  Biso 1.0 Ba
P7 1.0000000000 0.4442187530 0.7073779599 0.2494041082  Biso 1.0 P
P8 1.0000000000 0.5989112053 0.2494127809 0.7074075658  Biso 1.0 P
P9 1.0000000000 0.5419520401 0.8063757901 0.6516721697  Biso 1.0 P
P10 1.0000000000 0.0000000000 0.6510563018 0.8057994346  Biso 1.0 P
P11 1.0000000000 0.8193921453 0.1745629022 0.3361094533  Biso 1.0 P
P12 1.0000000000 0.6699289925 0.3360759797 0.1745905026  Biso 1.0 P
P13 1.0000000000 0.0753801863 0.4305332394 0.5799445126  Biso 1.0 P
P14 1.0000000000 0.9136799992 0.5802144111 0.4306988037  Biso 1.0 P
