# AFLOW.org Repositories
# Ba3S5Ti1   [BCT,BCT2,tI36] (STD_PRIM doi
data_Ba3S5Ti1
_pd_phase_name Ba3S5Ti1
_cell_length_a  9.2785298633
_cell_length_b  9.2785298633
_cell_length_c  9.2785298633
_cell_angle_alpha  125.0799058592
_cell_angle_beta  125.0799058592
_cell_angle_gamma  81.4057236956
_symmetry_space_group_name_H-M  'P1'
_symmetry_Int_Tables_Number  1
loop_
_symmetry_equiv_pos_site_id
_symmetry_equiv_pos_as_xyz
  1  x,y,z
loop_
 _atom_site_label
 _atom_site_occupancy
 _atom_site_fract_x
 _atom_site_fract_y
 _atom_site_fract_z
 _atom_site_thermal_displace_type
 _atom_site_B_iso_or_equiv
 _atom_site_type_symbol
Ba1 1.0000000000 0.2500000000 0.2500000000 0.0000000000  Biso 1.0 Ba
Ba2 1.0000000000 0.7500000000 0.7500000000 0.0000000000  Biso 1.0 Ba
Ba3 1.0000000000 0.3369485334 0.1630514666 0.5000000000  Biso 1.0 Ba
Ba4 1.0000000000 0.6630514666 0.8369485334 0.5000000000  Biso 1.0 Ba
Ba5 1.0000000000 0.1630514666 0.6630514666 0.8261029332  Biso 1.0 Ba
Ba6 1.0000000000 0.8369485334 0.3369485334 0.1738970668  Biso 1.0 Ba
S7 1.0000000000 0.0000000000 0.0000000000 0.0000000000  Biso 1.0 S
S8 1.0000000000 0.5000000000 0.5000000000 0.0000000000  Biso 1.0 S
S9 1.0000000000 0.3002106511 0.5022799043 0.5000000000  Biso 1.0 S
S10 1.0000000000 0.0022799043 0.8002106511 0.5000000000  Biso 1.0 S
S11 1.0000000000 0.5022799043 0.0022799043 0.2020692532  Biso 1.0 S
S12 1.0000000000 0.8002106511 0.3002106511 0.7979307468  Biso 1.0 S
S13 1.0000000000 0.1997893489 0.6997893489 0.2020692532  Biso 1.0 S
S14 1.0000000000 0.4977200957 0.9977200957 0.7979307468  Biso 1.0 S
S15 1.0000000000 0.9977200957 0.1997893489 0.5000000000  Biso 1.0 S
S16 1.0000000000 0.6997893489 0.4977200957 0.5000000000  Biso 1.0 S
Ti17 1.0000000000 0.2500000000 0.7500000000 0.5000000000  Biso 1.0 Ti
Ti18 1.0000000000 0.7500000000 0.2500000000 0.5000000000  Biso 1.0 Ti
