# AFLOW.org Repositories
# Be1C1N2   [BCT,BCT2,tI16] (STD_PRIM doi:
data_Be1C1N2
_pd_phase_name Be1C1N2
_cell_length_a  4.3905569278
_cell_length_b  4.3905569278
_cell_length_c  4.3905569278
_cell_angle_alpha  129.2508987328
_cell_angle_beta  129.2508987328
_cell_angle_gamma  74.6072007495
_symmetry_space_group_name_H-M  'P1'
_symmetry_Int_Tables_Number  1
loop_
_symmetry_equiv_pos_site_id
_symmetry_equiv_pos_as_xyz
  1  x,y,z
loop_
 _atom_site_label
 _atom_site_occupancy
 _atom_site_fract_x
 _atom_site_fract_y
 _atom_site_fract_z
 _atom_site_thermal_displace_type
 _atom_site_B_iso_or_equiv
 _atom_site_type_symbol
Be1 1.0000000000 0.0000000000 0.0000000000 0.0000000000  Biso 1.0 Be
Be2 1.0000000000 0.2500000000 0.7500000000 0.5000000000  Biso 1.0 Be
C3 1.0000000000 0.5000000000 0.5000000000 0.0000000000  Biso 1.0 C
C4 1.0000000000 0.7500000000 0.2500000000 0.5000000000  Biso 1.0 C
N5 1.0000000000 0.6250000000 0.1703209174 0.0453209174  Biso 1.0 N
N6 1.0000000000 0.1250000000 0.5796790826 0.9546790826  Biso 1.0 N
N7 1.0000000000 0.8296790826 0.8750000000 0.4546790826  Biso 1.0 N
N8 1.0000000000 0.4203209174 0.3750000000 0.5453209174  Biso 1.0 N
