# AFLOW.org Repositories
# Be1Zn13   [FCC,FCC,cF112] (STD_PRIM doi:
data_Be1Zn13
_pd_phase_name Be1Zn13
_cell_length_a  8.5404954387
_cell_length_b  8.5404954387
_cell_length_c  8.5404954387
_cell_angle_alpha  60.0000000000
_cell_angle_beta  60.0000000000
_cell_angle_gamma  60.0000000000
_symmetry_space_group_name_H-M  'P1'
_symmetry_Int_Tables_Number  1
loop_
_symmetry_equiv_pos_site_id
_symmetry_equiv_pos_as_xyz
  1  x,y,z
loop_
 _atom_site_label
 _atom_site_occupancy
 _atom_site_fract_x
 _atom_site_fract_y
 _atom_site_fract_z
 _atom_site_thermal_displace_type
 _atom_site_B_iso_or_equiv
 _atom_site_type_symbol
Be1 1.0000000000 0.7500000000 0.7500000000 0.7500000000  Biso 1.0 Be
Be2 1.0000000000 0.2500000000 0.2500000000 0.2500000000  Biso 1.0 Be
Zn3 1.0000000000 0.0000000000 0.0000000000 0.0000000000  Biso 1.0 Zn
Zn4 1.0000000000 0.5000000000 0.5000000000 0.5000000000  Biso 1.0 Zn
Zn5 1.0000000000 0.0614820473 0.6992022425 0.3007977575  Biso 1.0 Zn
Zn6 1.0000000000 0.3007977575 0.9385179527 0.0614820473  Biso 1.0 Zn
Zn7 1.0000000000 0.6992022425 0.0614820473 0.9385179527  Biso 1.0 Zn
Zn8 1.0000000000 0.9385179527 0.3007977575 0.6992022425  Biso 1.0 Zn
Zn9 1.0000000000 0.9385179527 0.0614820473 0.3007977575  Biso 1.0 Zn
Zn10 1.0000000000 0.6992022425 0.3007977575 0.0614820473  Biso 1.0 Zn
Zn11 1.0000000000 0.3007977575 0.6992022425 0.9385179527  Biso 1.0 Zn
Zn12 1.0000000000 0.0614820473 0.9385179527 0.6992022425  Biso 1.0 Zn
Zn13 1.0000000000 0.6992022425 0.9385179527 0.3007977575  Biso 1.0 Zn
Zn14 1.0000000000 0.9385179527 0.6992022425 0.0614820473  Biso 1.0 Zn
Zn15 1.0000000000 0.0614820473 0.3007977575 0.9385179527  Biso 1.0 Zn
Zn16 1.0000000000 0.3007977575 0.0614820473 0.6992022425  Biso 1.0 Zn
Zn17 1.0000000000 0.1992022425 0.8007977575 0.4385179527  Biso 1.0 Zn
Zn18 1.0000000000 0.4385179527 0.5614820473 0.1992022425  Biso 1.0 Zn
Zn19 1.0000000000 0.5614820473 0.4385179527 0.8007977575  Biso 1.0 Zn
Zn20 1.0000000000 0.8007977575 0.1992022425 0.5614820473  Biso 1.0 Zn
Zn21 1.0000000000 0.1992022425 0.4385179527 0.5614820473  Biso 1.0 Zn
Zn22 1.0000000000 0.4385179527 0.1992022425 0.8007977575  Biso 1.0 Zn
Zn23 1.0000000000 0.5614820473 0.8007977575 0.1992022425  Biso 1.0 Zn
Zn24 1.0000000000 0.8007977575 0.5614820473 0.4385179527  Biso 1.0 Zn
Zn25 1.0000000000 0.1992022425 0.5614820473 0.8007977575  Biso 1.0 Zn
Zn26 1.0000000000 0.4385179527 0.8007977575 0.5614820473  Biso 1.0 Zn
Zn27 1.0000000000 0.5614820473 0.1992022425 0.4385179527  Biso 1.0 Zn
Zn28 1.0000000000 0.8007977575 0.4385179527 0.1992022425  Biso 1.0 Zn
