# AFLOW.org Repositories
# Be22W1   [FCC,FCC,cF184] (STD_PRIM doi:1
data_Be22W1
_pd_phase_name Be22W1
_cell_length_a  8.1869482530
_cell_length_b  8.1869482530
_cell_length_c  8.1869482530
_cell_angle_alpha  60.0000000000
_cell_angle_beta  60.0000000000
_cell_angle_gamma  60.0000000000
_symmetry_space_group_name_H-M  'P1'
_symmetry_Int_Tables_Number  1
loop_
_symmetry_equiv_pos_site_id
_symmetry_equiv_pos_as_xyz
  1  x,y,z
loop_
 _atom_site_label
 _atom_site_occupancy
 _atom_site_fract_x
 _atom_site_fract_y
 _atom_site_fract_z
 _atom_site_thermal_displace_type
 _atom_site_B_iso_or_equiv
 _atom_site_type_symbol
Be1 1.0000000000 0.1250000000 0.6250000000 0.1250000000  Biso 1.0 Be
Be2 1.0000000000 0.1250000000 0.1250000000 0.6250000000  Biso 1.0 Be
Be3 1.0000000000 0.6250000000 0.1250000000 0.1250000000  Biso 1.0 Be
Be4 1.0000000000 0.1250000000 0.1250000000 0.1250000000  Biso 1.0 Be
Be5 1.0000000000 0.6250000000 0.1250000000 0.6250000000  Biso 1.0 Be
Be6 1.0000000000 0.6250000000 0.6250000000 0.1250000000  Biso 1.0 Be
Be7 1.0000000000 0.1250000000 0.6250000000 0.6250000000  Biso 1.0 Be
Be8 1.0000000000 0.6250000000 0.6250000000 0.6250000000  Biso 1.0 Be
Be9 1.0000000000 0.1346898723 0.8653101277 0.1346898723  Biso 1.0 Be
Be10 1.0000000000 0.8653101277 0.1346898723 0.8653101277  Biso 1.0 Be
Be11 1.0000000000 0.8653101277 0.8653101277 0.1346898723  Biso 1.0 Be
Be12 1.0000000000 0.1346898723 0.1346898723 0.8653101277  Biso 1.0 Be
Be13 1.0000000000 0.1346898723 0.8653101277 0.8653101277  Biso 1.0 Be
Be14 1.0000000000 0.8653101277 0.1346898723 0.1346898723  Biso 1.0 Be
Be15 1.0000000000 0.1153101277 0.1153101277 0.3846898723  Biso 1.0 Be
Be16 1.0000000000 0.3846898723 0.3846898723 0.1153101277  Biso 1.0 Be
Be17 1.0000000000 0.3846898723 0.1153101277 0.3846898723  Biso 1.0 Be
Be18 1.0000000000 0.1153101277 0.3846898723 0.1153101277  Biso 1.0 Be
Be19 1.0000000000 0.1153101277 0.3846898723 0.3846898723  Biso 1.0 Be
Be20 1.0000000000 0.3846898723 0.1153101277 0.1153101277  Biso 1.0 Be
Be21 1.0000000000 0.3009087905 0.5686185271 0.8295638918  Biso 1.0 Be
Be22 1.0000000000 0.3009087905 0.8295638918 0.5686185271  Biso 1.0 Be
Be23 1.0000000000 0.5686185271 0.3009087905 0.3009087905  Biso 1.0 Be
Be24 1.0000000000 0.8295638918 0.3009087905 0.3009087905  Biso 1.0 Be
Be25 1.0000000000 0.3009087905 0.5686185271 0.3009087905  Biso 1.0 Be
Be26 1.0000000000 0.3009087905 0.8295638918 0.3009087905  Biso 1.0 Be
Be27 1.0000000000 0.8295638918 0.3009087905 0.5686185271  Biso 1.0 Be
Be28 1.0000000000 0.5686185271 0.3009087905 0.8295638918  Biso 1.0 Be
Be29 1.0000000000 0.8295638918 0.5686185271 0.3009087905  Biso 1.0 Be
Be30 1.0000000000 0.5686185271 0.8295638918 0.3009087905  Biso 1.0 Be
Be31 1.0000000000 0.3009087905 0.3009087905 0.8295638918  Biso 1.0 Be
Be32 1.0000000000 0.3009087905 0.3009087905 0.5686185271  Biso 1.0 Be
Be33 1.0000000000 0.9490912095 0.4204361082 0.6813814729  Biso 1.0 Be
Be34 1.0000000000 0.9490912095 0.6813814729 0.4204361082  Biso 1.0 Be
Be35 1.0000000000 0.6813814729 0.9490912095 0.9490912095  Biso 1.0 Be
Be36 1.0000000000 0.4204361082 0.9490912095 0.9490912095  Biso 1.0 Be
Be37 1.0000000000 0.9490912095 0.9490912095 0.6813814729  Biso 1.0 Be
Be38 1.0000000000 0.9490912095 0.9490912095 0.4204361082  Biso 1.0 Be
Be39 1.0000000000 0.4204361082 0.6813814729 0.9490912095  Biso 1.0 Be
Be40 1.0000000000 0.6813814729 0.4204361082 0.9490912095  Biso 1.0 Be
Be41 1.0000000000 0.4204361082 0.9490912095 0.6813814729  Biso 1.0 Be
Be42 1.0000000000 0.6813814729 0.9490912095 0.4204361082  Biso 1.0 Be
Be43 1.0000000000 0.9490912095 0.4204361082 0.9490912095  Biso 1.0 Be
Be44 1.0000000000 0.9490912095 0.6813814729 0.9490912095  Biso 1.0 Be
W45 1.0000000000 0.5000000000 0.5000000000 0.5000000000  Biso 1.0 W
W46 1.0000000000 0.7500000000 0.7500000000 0.7500000000  Biso 1.0 W
