# AFLOW.org Repositories
# Bi1Er5Pt2   [BCT,BCT2,tI32] (STD_PRIM do
data_Bi1Er5Pt2
_pd_phase_name Bi1Er5Pt2
_cell_length_a  8.7295177574
_cell_length_b  8.7295177574
_cell_length_c  8.7295177574
_cell_angle_alpha  127.5458756098
_cell_angle_beta  127.5458756098
_cell_angle_gamma  77.3618551575
_symmetry_space_group_name_H-M  'P1'
_symmetry_Int_Tables_Number  1
loop_
_symmetry_equiv_pos_site_id
_symmetry_equiv_pos_as_xyz
  1  x,y,z
loop_
 _atom_site_label
 _atom_site_occupancy
 _atom_site_fract_x
 _atom_site_fract_y
 _atom_site_fract_z
 _atom_site_thermal_displace_type
 _atom_site_B_iso_or_equiv
 _atom_site_type_symbol
Bi1 1.0000000000 0.2500000000 0.2500000000 0.0000000000  Biso 1.0 Bi
Bi2 1.0000000000 0.7500000000 0.7500000000 0.0000000000  Biso 1.0 Bi
Er3 1.0000000000 0.0000000000 0.0000000000 0.0000000000  Biso 1.0 Er
Er4 1.0000000000 0.5000000000 0.5000000000 0.0000000000  Biso 1.0 Er
Er5 1.0000000000 0.7928095753 0.2928095753 0.8106393231  Biso 1.0 Er
Er6 1.0000000000 0.4821702522 0.9821702522 0.1893606769  Biso 1.0 Er
Er7 1.0000000000 0.2928095753 0.4821702522 0.5000000000  Biso 1.0 Er
Er8 1.0000000000 0.9821702522 0.7928095753 0.5000000000  Biso 1.0 Er
Er9 1.0000000000 0.0178297478 0.2071904247 0.5000000000  Biso 1.0 Er
Er10 1.0000000000 0.7071904247 0.5178297478 0.5000000000  Biso 1.0 Er
Er11 1.0000000000 0.5178297478 0.0178297478 0.8106393231  Biso 1.0 Er
Er12 1.0000000000 0.2071904247 0.7071904247 0.1893606769  Biso 1.0 Er
Pt13 1.0000000000 0.8603845992 0.3603845992 0.2207691985  Biso 1.0 Pt
Pt14 1.0000000000 0.1396154008 0.6396154008 0.7792308015  Biso 1.0 Pt
Pt15 1.0000000000 0.3603845992 0.1396154008 0.5000000000  Biso 1.0 Pt
Pt16 1.0000000000 0.6396154008 0.8603845992 0.5000000000  Biso 1.0 Pt
