# AFLOW.org Repositories
# Bi1Pt1Se1   [CUB,CUB,cP12] (STD_PRIM doi
data_Bi1Pt1Se1
_pd_phase_name Bi1Pt1Se1
_cell_length_a  6.5227704436
_cell_length_b  6.5227704436
_cell_length_c  6.5227704436
_cell_angle_alpha  90.0000000000
_cell_angle_beta  90.0000000000
_cell_angle_gamma  90.0000000000
_symmetry_space_group_name_H-M  'P1'
_symmetry_Int_Tables_Number  1
loop_
_symmetry_equiv_pos_site_id
_symmetry_equiv_pos_as_xyz
  1  x,y,z
loop_
 _atom_site_label
 _atom_site_occupancy
 _atom_site_fract_x
 _atom_site_fract_y
 _atom_site_fract_z
 _atom_site_thermal_displace_type
 _atom_site_B_iso_or_equiv
 _atom_site_type_symbol
Bi1 1.0000000000 0.6282422401 0.6282422401 0.3717577599  Biso 1.0 Bi
Bi2 1.0000000000 0.8717577599 0.3717577599 0.8717577599  Biso 1.0 Bi
Bi3 1.0000000000 0.3717577599 0.1282422401 0.1282422401  Biso 1.0 Bi
Bi4 1.0000000000 0.1282422401 0.8717577599 0.6282422401  Biso 1.0 Bi
Pt5 1.0000000000 0.9889528746 0.9889528746 0.0110471254  Biso 1.0 Pt
Pt6 1.0000000000 0.5110471254 0.0110471254 0.5110471254  Biso 1.0 Pt
Pt7 1.0000000000 0.0110471254 0.4889528746 0.4889528746  Biso 1.0 Pt
Pt8 1.0000000000 0.4889528746 0.5110471254 0.9889528746  Biso 1.0 Pt
Se9 1.0000000000 0.3785973704 0.3785973704 0.6214026296  Biso 1.0 Se
Se10 1.0000000000 0.1214026296 0.6214026296 0.1214026296  Biso 1.0 Se
Se11 1.0000000000 0.6214026296 0.8785973704 0.8785973704  Biso 1.0 Se
Se12 1.0000000000 0.8785973704 0.1214026296 0.3785973704  Biso 1.0 Se
