# AFLOW.org Repositories
# Bi1Ti2   [BCT,BCT2,tI12] (STD_PRIM doi:1
data_Bi1Ti2
_pd_phase_name Bi1Ti2
_cell_length_a  7.7695822889
_cell_length_b  7.7695822889
_cell_length_c  7.7695822889
_cell_angle_alpha  148.0064050778
_cell_angle_beta  148.0064050778
_cell_angle_gamma  45.8759108301
_symmetry_space_group_name_H-M  'P1'
_symmetry_Int_Tables_Number  1
loop_
_symmetry_equiv_pos_site_id
_symmetry_equiv_pos_as_xyz
  1  x,y,z
loop_
 _atom_site_label
 _atom_site_occupancy
 _atom_site_fract_x
 _atom_site_fract_y
 _atom_site_fract_z
 _atom_site_thermal_displace_type
 _atom_site_B_iso_or_equiv
 _atom_site_type_symbol
Bi1 1.0000000000 0.6501849015 0.6501849015 0.0000000000  Biso 1.0 Bi
Bi2 1.0000000000 0.3498150985 0.3498150985 0.0000000000  Biso 1.0 Bi
Ti3 1.0000000000 0.5000000000 0.0000000000 0.5000000000  Biso 1.0 Ti
Ti4 1.0000000000 0.0000000000 0.5000000000 0.5000000000  Biso 1.0 Ti
Ti5 1.0000000000 0.8585296738 0.8585296738 0.0000000000  Biso 1.0 Ti
Ti6 1.0000000000 0.1414703262 0.1414703262 0.0000000000  Biso 1.0 Ti
