# AFLOW.org Repositories
# Bi2Co1Hf6   [HEX,HEX,hP9] (STD_PRIM doi:
data_Bi2Co1Hf6
_pd_phase_name Bi2Co1Hf6
_cell_length_a  7.8654392992
_cell_length_b  7.8654392992
_cell_length_c  3.6000869950
_cell_angle_alpha  90.0000000000
_cell_angle_beta  90.0000000000
_cell_angle_gamma  120.0000000000
_symmetry_space_group_name_H-M  'P1'
_symmetry_Int_Tables_Number  1
loop_
_symmetry_equiv_pos_site_id
_symmetry_equiv_pos_as_xyz
  1  x,y,z
loop_
 _atom_site_label
 _atom_site_occupancy
 _atom_site_fract_x
 _atom_site_fract_y
 _atom_site_fract_z
 _atom_site_thermal_displace_type
 _atom_site_B_iso_or_equiv
 _atom_site_type_symbol
Bi1 1.0000000000 0.6666718966 0.3333467183 0.0000000000  Biso 1.0 Bi
Bi2 1.0000000000 0.3333251784 0.6666532817 0.0000000000  Biso 1.0 Bi
Co3 1.0000000000 0.0000000000 0.0000000000 0.5000000000  Biso 1.0 Co
Hf4 1.0000000000 0.0000000000 0.3896191573 0.5000000000  Biso 1.0 Hf
Hf5 1.0000000000 0.6103808427 0.6103808427 0.5000000000  Biso 1.0 Hf
Hf6 1.0000000000 0.3896319750 0.0000000000 0.5000000000  Biso 1.0 Hf
Hf7 1.0000000000 0.0000000000 0.7668429510 0.0000000000  Biso 1.0 Hf
Hf8 1.0000000000 0.2331570490 0.2331570490 0.0000000000  Biso 1.0 Hf
Hf9 1.0000000000 0.7668337700 0.0000000000 0.0000000000  Biso 1.0 Hf
