# AFLOW.org Repositories
# Bi2Ir2O7   [FCC,FCC,cF88] (STD_PRIM doi:
data_Bi2Ir2O7
_pd_phase_name Bi2Ir2O7
_cell_length_a  7.3738903898
_cell_length_b  7.3738903898
_cell_length_c  7.3738903898
_cell_angle_alpha  60.0000000000
_cell_angle_beta  60.0000000000
_cell_angle_gamma  60.0000000000
_symmetry_space_group_name_H-M  'P1'
_symmetry_Int_Tables_Number  1
loop_
_symmetry_equiv_pos_site_id
_symmetry_equiv_pos_as_xyz
  1  x,y,z
loop_
 _atom_site_label
 _atom_site_occupancy
 _atom_site_fract_x
 _atom_site_fract_y
 _atom_site_fract_z
 _atom_site_thermal_displace_type
 _atom_site_B_iso_or_equiv
 _atom_site_type_symbol
Bi1 1.0000000000 0.5000000000 0.5000000000 0.5000000000  Biso 1.0 Bi
Bi2 1.0000000000 0.0000000000 0.0000000000 0.5000000000  Biso 1.0 Bi
Bi3 1.0000000000 0.0000000000 0.5000000000 0.5000000000  Biso 1.0 Bi
Bi4 1.0000000000 0.0000000000 0.5000000000 0.0000000000  Biso 1.0 Bi
Ir5 1.0000000000 0.0000000000 0.0000000000 0.0000000000  Biso 1.0 Ir
Ir6 1.0000000000 0.5000000000 0.5000000000 0.0000000000  Biso 1.0 Ir
Ir7 1.0000000000 0.5000000000 0.0000000000 0.0000000000  Biso 1.0 Ir
Ir8 1.0000000000 0.5000000000 0.0000000000 0.5000000000  Biso 1.0 Ir
O9 1.0000000000 0.5815681314 0.6684318686 0.0815681314  Biso 1.0 O
O10 1.0000000000 0.1684318686 0.0815681314 0.6684318686  Biso 1.0 O
O11 1.0000000000 0.5815681314 0.6684318686 0.6684318686  Biso 1.0 O
O12 1.0000000000 0.1684318686 0.0815681314 0.0815681314  Biso 1.0 O
O13 1.0000000000 0.5815681314 0.0815681314 0.6684318686  Biso 1.0 O
O14 1.0000000000 0.1684318686 0.6684318686 0.0815681314  Biso 1.0 O
O15 1.0000000000 0.8315681314 0.9184318686 0.9184318686  Biso 1.0 O
O16 1.0000000000 0.4184318686 0.3315681314 0.3315681314  Biso 1.0 O
O17 1.0000000000 0.8315681314 0.9184318686 0.3315681314  Biso 1.0 O
O18 1.0000000000 0.4184318686 0.3315681314 0.9184318686  Biso 1.0 O
O19 1.0000000000 0.4184318686 0.9184318686 0.3315681314  Biso 1.0 O
O20 1.0000000000 0.8315681314 0.3315681314 0.9184318686  Biso 1.0 O
O21 1.0000000000 0.1250000000 0.6250000000 0.6250000000  Biso 1.0 O
O22 1.0000000000 0.8750000000 0.3750000000 0.3750000000  Biso 1.0 O
