# AFLOW.org Repositories
# Bi2O2Se1   [BCT,BCT2,tI10] (STD_PRIM doi
data_Bi2O2Se1
_pd_phase_name Bi2O2Se1
_cell_length_a  6.7979991658
_cell_length_b  6.7979991658
_cell_length_c  6.7979991658
_cell_angle_alpha  146.4335133245
_cell_angle_beta  146.4335133245
_cell_angle_gamma  48.2032968640
_symmetry_space_group_name_H-M  'P1'
_symmetry_Int_Tables_Number  1
loop_
_symmetry_equiv_pos_site_id
_symmetry_equiv_pos_as_xyz
  1  x,y,z
loop_
 _atom_site_label
 _atom_site_occupancy
 _atom_site_fract_x
 _atom_site_fract_y
 _atom_site_fract_z
 _atom_site_thermal_displace_type
 _atom_site_B_iso_or_equiv
 _atom_site_type_symbol
Bi1 1.0000000000 0.3527230046 0.3527230046 0.0000000000  Biso 1.0 Bi
Bi2 1.0000000000 0.6472769954 0.6472769954 0.0000000000  Biso 1.0 Bi
O3 1.0000000000 0.7500000000 0.2500000000 0.5000000000  Biso 1.0 O
O4 1.0000000000 0.2500000000 0.7500000000 0.5000000000  Biso 1.0 O
Se5 1.0000000000 0.0000000000 0.0000000000 0.0000000000  Biso 1.0 Se
