# AFLOW.org Repositories
# Bi4Cu4Mn3   [FCC,FCC,cF88] (STD_PRIM doi
data_Bi4Cu4Mn3
_pd_phase_name Bi4Cu4Mn3
_cell_length_a  8.6880004173
_cell_length_b  8.6880004173
_cell_length_c  8.6880004173
_cell_angle_alpha  60.0000000000
_cell_angle_beta  60.0000000000
_cell_angle_gamma  60.0000000000
_symmetry_space_group_name_H-M  'P1'
_symmetry_Int_Tables_Number  1
loop_
_symmetry_equiv_pos_site_id
_symmetry_equiv_pos_as_xyz
  1  x,y,z
loop_
 _atom_site_label
 _atom_site_occupancy
 _atom_site_fract_x
 _atom_site_fract_y
 _atom_site_fract_z
 _atom_site_thermal_displace_type
 _atom_site_B_iso_or_equiv
 _atom_site_type_symbol
Bi1 1.0000000000 0.7500000000 0.7500000000 0.7500000000  Biso 1.0 Bi
Bi2 1.0000000000 0.2500000000 0.2500000000 0.2500000000  Biso 1.0 Bi
Bi3 1.0000000000 0.2824516286 0.7175483714 0.2824516286  Biso 1.0 Bi
Bi4 1.0000000000 0.7175483714 0.2824516286 0.7175483714  Biso 1.0 Bi
Bi5 1.0000000000 0.7175483714 0.2824516286 0.2824516286  Biso 1.0 Bi
Bi6 1.0000000000 0.2824516286 0.7175483714 0.7175483714  Biso 1.0 Bi
Bi7 1.0000000000 0.7175483714 0.7175483714 0.2824516286  Biso 1.0 Bi
Bi8 1.0000000000 0.2824516286 0.2824516286 0.7175483714  Biso 1.0 Bi
Cu9 1.0000000000 0.8920479753 0.8920479753 0.3238560742  Biso 1.0 Cu
Cu10 1.0000000000 0.8920479753 0.8920479753 0.8920479753  Biso 1.0 Cu
Cu11 1.0000000000 0.8920479753 0.3238560742 0.8920479753  Biso 1.0 Cu
Cu12 1.0000000000 0.3238560742 0.8920479753 0.8920479753  Biso 1.0 Cu
Cu13 1.0000000000 0.1079520247 0.1079520247 0.1079520247  Biso 1.0 Cu
Cu14 1.0000000000 0.1079520247 0.1079520247 0.6761439258  Biso 1.0 Cu
Cu15 1.0000000000 0.1079520247 0.6761439258 0.1079520247  Biso 1.0 Cu
Cu16 1.0000000000 0.6761439258 0.1079520247 0.1079520247  Biso 1.0 Cu
Mn17 1.0000000000 0.5000000000 0.0000000000 0.5000000000  Biso 1.0 Mn
Mn18 1.0000000000 0.0000000000 0.5000000000 0.0000000000  Biso 1.0 Mn
Mn19 1.0000000000 0.0000000000 0.5000000000 0.5000000000  Biso 1.0 Mn
Mn20 1.0000000000 0.5000000000 0.0000000000 0.0000000000  Biso 1.0 Mn
Mn21 1.0000000000 0.0000000000 0.0000000000 0.5000000000  Biso 1.0 Mn
Mn22 1.0000000000 0.5000000000 0.5000000000 0.0000000000  Biso 1.0 Mn
