# AFLOW.org Repositories
# Br1In5Se5   [ORC,ORC,oP22] (STD_PRIM doi
data_Br1In5Se5
_pd_phase_name Br1In5Se5
_cell_length_a  4.1551893861
_cell_length_b  9.4558116438
_cell_length_c  15.5929380505
_cell_angle_alpha  90.0000000000
_cell_angle_beta  90.0000000000
_cell_angle_gamma  90.0000000000
_symmetry_space_group_name_H-M  'P1'
_symmetry_Int_Tables_Number  1
loop_
_symmetry_equiv_pos_site_id
_symmetry_equiv_pos_as_xyz
  1  x,y,z
loop_
 _atom_site_label
 _atom_site_occupancy
 _atom_site_fract_x
 _atom_site_fract_y
 _atom_site_fract_z
 _atom_site_thermal_displace_type
 _atom_site_B_iso_or_equiv
 _atom_site_type_symbol
Br1 1.0000000000 0.0000000000 0.4086672143 0.4585263270  Biso 1.0 Br
Br2 1.0000000000 0.5000000000 0.5913327857 0.9585263270  Biso 1.0 Br
In3 1.0000000000 0.0000000000 0.8929152353 0.4055466737  Biso 1.0 In
In4 1.0000000000 0.5000000000 0.1070847647 0.9055466737  Biso 1.0 In
In5 1.0000000000 0.5000000000 0.6047766161 0.5230788192  Biso 1.0 In
In6 1.0000000000 0.0000000000 0.3952233839 0.0230788192  Biso 1.0 In
In7 1.0000000000 0.5000000000 0.1923458532 0.3036847849  Biso 1.0 In
In8 1.0000000000 0.0000000000 0.8076541468 0.8036847849  Biso 1.0 In
In9 1.0000000000 0.5000000000 0.4781332257 0.2538289881  Biso 1.0 In
In10 1.0000000000 0.0000000000 0.5218667743 0.7538289881  Biso 1.0 In
In11 1.0000000000 0.5000000000 0.8548473118 0.1084099980  Biso 1.0 In
In12 1.0000000000 0.0000000000 0.1451526882 0.6084099980  Biso 1.0 In
Se13 1.0000000000 0.5000000000 0.7056650990 0.3594978127  Biso 1.0 Se
Se14 1.0000000000 0.0000000000 0.2943349010 0.8594978127  Biso 1.0 Se
Se15 1.0000000000 0.5000000000 0.4270144499 0.6593832559  Biso 1.0 Se
Se16 1.0000000000 0.0000000000 0.5729855501 0.1593832559  Biso 1.0 Se
Se17 1.0000000000 0.0000000000 0.7740801593 0.5675519050  Biso 1.0 Se
Se18 1.0000000000 0.5000000000 0.2259198407 0.0675519050  Biso 1.0 Se
Se19 1.0000000000 0.5000000000 0.0710275273 0.4591931739  Biso 1.0 Se
Se20 1.0000000000 0.0000000000 0.9289724727 0.9591931739  Biso 1.0 Se
Se21 1.0000000000 0.0000000000 0.0320319096 0.2502182616  Biso 1.0 Se
Se22 1.0000000000 0.5000000000 0.9679680904 0.7502182616  Biso 1.0 Se
