# AFLOW.org Repositories
# Br1Na1O3   [CUB,CUB,cP20] (STD_PRIM doi:
data_Br1Na1O3
_pd_phase_name Br1Na1O3
_cell_length_a  6.8059185042
_cell_length_b  6.8059185042
_cell_length_c  6.8059185042
_cell_angle_alpha  90.0000000000
_cell_angle_beta  90.0000000000
_cell_angle_gamma  90.0000000000
_symmetry_space_group_name_H-M  'P1'
_symmetry_Int_Tables_Number  1
loop_
_symmetry_equiv_pos_site_id
_symmetry_equiv_pos_as_xyz
  1  x,y,z
loop_
 _atom_site_label
 _atom_site_occupancy
 _atom_site_fract_x
 _atom_site_fract_y
 _atom_site_fract_z
 _atom_site_thermal_displace_type
 _atom_site_B_iso_or_equiv
 _atom_site_type_symbol
Br1 1.0000000000 0.5938702327 0.5938702327 0.4061297673  Biso 1.0 Br
Br2 1.0000000000 0.9061297673 0.4061297673 0.9061297673  Biso 1.0 Br
Br3 1.0000000000 0.4061297673 0.0938702327 0.0938702327  Biso 1.0 Br
Br4 1.0000000000 0.0938702327 0.9061297673 0.5938702327  Biso 1.0 Br
Na5 1.0000000000 0.9227859752 0.9227859752 0.0772140248  Biso 1.0 Na
Na6 1.0000000000 0.5772140248 0.0772140248 0.5772140248  Biso 1.0 Na
Na7 1.0000000000 0.0772140248 0.4227859752 0.4227859752  Biso 1.0 Na
Na8 1.0000000000 0.4227859752 0.5772140248 0.9227859752  Biso 1.0 Na
O9 1.0000000000 0.7139132425 0.4017588341 0.5082777753  Biso 1.0 O
O10 1.0000000000 0.7860867575 0.5982411659 0.0082777753  Biso 1.0 O
O11 1.0000000000 0.2860867575 0.9017588341 0.9917222247  Biso 1.0 O
O12 1.0000000000 0.2139132425 0.0982411659 0.4917222247  Biso 1.0 O
O13 1.0000000000 0.4917222247 0.7139132425 0.5982411659  Biso 1.0 O
O14 1.0000000000 0.9917222247 0.7860867575 0.4017588341  Biso 1.0 O
O15 1.0000000000 0.0082777753 0.2860867575 0.0982411659  Biso 1.0 O
O16 1.0000000000 0.5082777753 0.2139132425 0.9017588341  Biso 1.0 O
O17 1.0000000000 0.4017588341 0.4917222247 0.2860867575  Biso 1.0 O
O18 1.0000000000 0.5982411659 0.9917222247 0.2139132425  Biso 1.0 O
O19 1.0000000000 0.9017588341 0.0082777753 0.7139132425  Biso 1.0 O
O20 1.0000000000 0.0982411659 0.5082777753 0.7860867575  Biso 1.0 O
