# AFLOW.org Repositories
# Br1Se2Tl5   [BCT,BCT2,tI32] (STD_PRIM do
data_Br1Se2Tl5
_pd_phase_name Br1Se2Tl5
_cell_length_a  9.0962812483
_cell_length_b  9.0962812483
_cell_length_c  9.0962812483
_cell_angle_alpha  122.4941824876
_cell_angle_beta  122.4941824876
_cell_angle_gamma  85.7316459521
_symmetry_space_group_name_H-M  'P1'
_symmetry_Int_Tables_Number  1
loop_
_symmetry_equiv_pos_site_id
_symmetry_equiv_pos_as_xyz
  1  x,y,z
loop_
 _atom_site_label
 _atom_site_occupancy
 _atom_site_fract_x
 _atom_site_fract_y
 _atom_site_fract_z
 _atom_site_thermal_displace_type
 _atom_site_B_iso_or_equiv
 _atom_site_type_symbol
Br1 1.0000000000 0.2500236321 0.2500236321 0.0000000000  Biso 1.0 Br
Br2 1.0000000000 0.7499763679 0.7499763679 0.0000000000  Biso 1.0 Br
Se3 1.0000000000 0.6579388866 0.8419749750 0.4999905089  Biso 1.0 Se
Se4 1.0000000000 0.3420611134 0.1580250250 0.5000094911  Biso 1.0 Se
Se5 1.0000000000 0.8420091362 0.3420178919 0.1839497996  Biso 1.0 Se
Se6 1.0000000000 0.1579908638 0.6579821081 0.8160502004  Biso 1.0 Se
Tl7 1.0000000000 0.0000000000 0.0000000000 0.0000000000  Biso 1.0 Tl
Tl8 1.0000000000 0.5000000000 0.5000000000 0.0000000000  Biso 1.0 Tl
Tl9 1.0000000000 0.9957419386 0.7899366198 0.4999820736  Biso 1.0 Tl
Tl10 1.0000000000 0.2900053283 0.4960509939 0.5003321089  Biso 1.0 Tl
Tl11 1.0000000000 0.7898679671 0.2898875930 0.7939307622  Biso 1.0 Tl
Tl12 1.0000000000 0.4959798876 0.9956475406 0.2058293132  Biso 1.0 Tl
Tl13 1.0000000000 0.5040201124 0.0043524594 0.7941706868  Biso 1.0 Tl
Tl14 1.0000000000 0.2101320329 0.7101124070 0.2060692378  Biso 1.0 Tl
Tl15 1.0000000000 0.7099946717 0.5039490061 0.4996678911  Biso 1.0 Tl
Tl16 1.0000000000 0.0042580614 0.2100633802 0.5000179264  Biso 1.0 Tl
