# AFLOW.org Repositories
# Br6Cs2Te1   [CUB,CUB,cP36] (STD_CONV doi
data_Br6Cs2Te1
_pd_phase_name Br6Cs2Te1
_cell_length_a  11.3183780363
_cell_length_b  11.3183780363
_cell_length_c  11.3183780363
_cell_angle_alpha  90.0000000000
_cell_angle_beta  90.0000000000
_cell_angle_gamma  90.0000000000
_symmetry_space_group_name_H-M  'P1'
_symmetry_Int_Tables_Number  1
loop_
_symmetry_equiv_pos_site_id
_symmetry_equiv_pos_as_xyz
  1  x,y,z
loop_
 _atom_site_label
 _atom_site_occupancy
 _atom_site_fract_x
 _atom_site_fract_y
 _atom_site_fract_z
 _atom_site_thermal_displace_type
 _atom_site_B_iso_or_equiv
 _atom_site_type_symbol
Br1 1.0000000000 0.0000000000 0.0000000000 0.2422285591  Biso 1.0 Br
Br2 1.0000000000 0.5000000000 0.5000000000 0.2422285591  Biso 1.0 Br
Br3 1.0000000000 0.5000000000 0.0000000000 0.7422285591  Biso 1.0 Br
Br4 1.0000000000 0.0000000000 0.5000000000 0.7422285591  Biso 1.0 Br
Br5 1.0000000000 0.5000000000 0.0000000000 0.2577714409  Biso 1.0 Br
Br6 1.0000000000 0.0000000000 0.5000000000 0.2577714409  Biso 1.0 Br
Br7 1.0000000000 0.0000000000 0.0000000000 0.7577714409  Biso 1.0 Br
Br8 1.0000000000 0.5000000000 0.5000000000 0.7577714409  Biso 1.0 Br
Br9 1.0000000000 0.5000000000 0.2577714409 0.0000000000  Biso 1.0 Br
Br10 1.0000000000 0.0000000000 0.7577714409 0.0000000000  Biso 1.0 Br
Br11 1.0000000000 0.0000000000 0.2577714409 0.5000000000  Biso 1.0 Br
Br12 1.0000000000 0.5000000000 0.7577714409 0.5000000000  Biso 1.0 Br
Br13 1.0000000000 0.0000000000 0.2422285591 0.0000000000  Biso 1.0 Br
Br14 1.0000000000 0.5000000000 0.7422285591 0.0000000000  Biso 1.0 Br
Br15 1.0000000000 0.5000000000 0.2422285591 0.5000000000  Biso 1.0 Br
Br16 1.0000000000 0.0000000000 0.7422285591 0.5000000000  Biso 1.0 Br
Br17 1.0000000000 0.2422285591 0.0000000000 0.0000000000  Biso 1.0 Br
Br18 1.0000000000 0.7422285591 0.5000000000 0.0000000000  Biso 1.0 Br
Br19 1.0000000000 0.7422285591 0.0000000000 0.5000000000  Biso 1.0 Br
Br20 1.0000000000 0.2422285591 0.5000000000 0.5000000000  Biso 1.0 Br
Br21 1.0000000000 0.7577714409 0.0000000000 0.0000000000  Biso 1.0 Br
Br22 1.0000000000 0.2577714409 0.5000000000 0.0000000000  Biso 1.0 Br
Br23 1.0000000000 0.2577714409 0.0000000000 0.5000000000  Biso 1.0 Br
Br24 1.0000000000 0.7577714409 0.5000000000 0.5000000000  Biso 1.0 Br
Cs25 1.0000000000 0.7500000000 0.2500000000 0.2500000000  Biso 1.0 Cs
Cs26 1.0000000000 0.2500000000 0.7500000000 0.2500000000  Biso 1.0 Cs
Cs27 1.0000000000 0.2500000000 0.2500000000 0.7500000000  Biso 1.0 Cs
Cs28 1.0000000000 0.7500000000 0.7500000000 0.7500000000  Biso 1.0 Cs
Cs29 1.0000000000 0.2500000000 0.2500000000 0.2500000000  Biso 1.0 Cs
Cs30 1.0000000000 0.7500000000 0.7500000000 0.2500000000  Biso 1.0 Cs
Cs31 1.0000000000 0.7500000000 0.2500000000 0.7500000000  Biso 1.0 Cs
Cs32 1.0000000000 0.2500000000 0.7500000000 0.7500000000  Biso 1.0 Cs
Te33 1.0000000000 0.0000000000 0.0000000000 0.0000000000  Biso 1.0 Te
Te34 1.0000000000 0.5000000000 0.5000000000 0.0000000000  Biso 1.0 Te
Te35 1.0000000000 0.5000000000 0.0000000000 0.5000000000  Biso 1.0 Te
Te36 1.0000000000 0.0000000000 0.5000000000 0.5000000000  Biso 1.0 Te
