# AFLOW.org Repositories
# Br6Rb2Sn1   [FCC,FCC,cF36] (STD_PRIM doi
data_Br6Rb2Sn1
_pd_phase_name Br6Rb2Sn1
_cell_length_a  7.8363720945
_cell_length_b  7.8363720945
_cell_length_c  7.8363720945
_cell_angle_alpha  60.0000000000
_cell_angle_beta  60.0000000000
_cell_angle_gamma  60.0000000000
_symmetry_space_group_name_H-M  'P1'
_symmetry_Int_Tables_Number  1
loop_
_symmetry_equiv_pos_site_id
_symmetry_equiv_pos_as_xyz
  1  x,y,z
loop_
 _atom_site_label
 _atom_site_occupancy
 _atom_site_fract_x
 _atom_site_fract_y
 _atom_site_fract_z
 _atom_site_thermal_displace_type
 _atom_site_B_iso_or_equiv
 _atom_site_type_symbol
Br1 1.0000000000 0.7583482627 0.7583482627 0.2416517373  Biso 1.0 Br
Br2 1.0000000000 0.2416517373 0.2416517373 0.7583482627  Biso 1.0 Br
Br3 1.0000000000 0.2416517373 0.7583482627 0.7583482627  Biso 1.0 Br
Br4 1.0000000000 0.7583482627 0.2416517373 0.2416517373  Biso 1.0 Br
Br5 1.0000000000 0.2416517373 0.7583482627 0.2416517373  Biso 1.0 Br
Br6 1.0000000000 0.7583482627 0.2416517373 0.7583482627  Biso 1.0 Br
Rb7 1.0000000000 0.2500000000 0.2500000000 0.2500000000  Biso 1.0 Rb
Rb8 1.0000000000 0.7500000000 0.7500000000 0.7500000000  Biso 1.0 Rb
Sn9 1.0000000000 0.0000000000 0.0000000000 0.0000000000  Biso 1.0 Sn
