# AFLOW.org Repositories
# C1   [BCT,BCT1,tI8] (STD_PRIM doi:10.101
data_C1
_pd_phase_name C1
_cell_length_a  3.3418378932
_cell_length_b  3.3418378932
_cell_length_c  3.3418378932
_cell_angle_alpha  98.1148962932
_cell_angle_beta  98.1148962932
_cell_angle_gamma  135.8634942596
_symmetry_space_group_name_H-M  'P1'
_symmetry_Int_Tables_Number  1
loop_
_symmetry_equiv_pos_site_id
_symmetry_equiv_pos_as_xyz
  1  x,y,z
loop_
 _atom_site_label
 _atom_site_occupancy
 _atom_site_fract_x
 _atom_site_fract_y
 _atom_site_fract_z
 _atom_site_thermal_displace_type
 _atom_site_B_iso_or_equiv
 _atom_site_type_symbol
C1 1.0000000000 0.8197637273 0.8197637273 0.6395274545  Biso 1.0 C
C2 1.0000000000 0.1802362727 0.1802362727 0.3604725455  Biso 1.0 C
C3 1.0000000000 0.8197637273 0.1802362727 0.0000000000  Biso 1.0 C
C4 1.0000000000 0.1802362727 0.8197637273 0.0000000000  Biso 1.0 C
