# AFLOW.org Repositories
# C1Co2Mo4   [FCC,FCC,cF112] (STD_PRIM doi
data_C1Co2Mo4
_pd_phase_name C1Co2Mo4
_cell_length_a  8.1065728304
_cell_length_b  8.1065728304
_cell_length_c  8.1065728304
_cell_angle_alpha  60.0000000000
_cell_angle_beta  60.0000000000
_cell_angle_gamma  60.0000000000
_symmetry_space_group_name_H-M  'P1'
_symmetry_Int_Tables_Number  1
loop_
_symmetry_equiv_pos_site_id
_symmetry_equiv_pos_as_xyz
  1  x,y,z
loop_
 _atom_site_label
 _atom_site_occupancy
 _atom_site_fract_x
 _atom_site_fract_y
 _atom_site_fract_z
 _atom_site_thermal_displace_type
 _atom_site_B_iso_or_equiv
 _atom_site_type_symbol
C1 1.0000000000 0.1250000000 0.1250000000 0.1250000000  Biso 1.0 C
C2 1.0000000000 0.6250000000 0.1250000000 0.1250000000  Biso 1.0 C
C3 1.0000000000 0.1250000000 0.1250000000 0.6250000000  Biso 1.0 C
C4 1.0000000000 0.1250000000 0.6250000000 0.1250000000  Biso 1.0 C
Co5 1.0000000000 0.8358691899 0.8358691899 0.8358691899  Biso 1.0 Co
Co6 1.0000000000 0.4923924303 0.8358691899 0.8358691899  Biso 1.0 Co
Co7 1.0000000000 0.8358691899 0.8358691899 0.4923924303  Biso 1.0 Co
Co8 1.0000000000 0.8358691899 0.4923924303 0.8358691899  Biso 1.0 Co
Co9 1.0000000000 0.7576075697 0.4141308101 0.4141308101  Biso 1.0 Co
Co10 1.0000000000 0.4141308101 0.4141308101 0.4141308101  Biso 1.0 Co
Co11 1.0000000000 0.4141308101 0.4141308101 0.7576075697  Biso 1.0 Co
Co12 1.0000000000 0.4141308101 0.7576075697 0.4141308101  Biso 1.0 Co
Mo13 1.0000000000 0.6250000000 0.6250000000 0.6250000000  Biso 1.0 Mo
Mo14 1.0000000000 0.1250000000 0.6250000000 0.6250000000  Biso 1.0 Mo
Mo15 1.0000000000 0.6250000000 0.6250000000 0.1250000000  Biso 1.0 Mo
Mo16 1.0000000000 0.6250000000 0.1250000000 0.6250000000  Biso 1.0 Mo
Mo17 1.0000000000 0.1937170417 0.8062829583 0.1937170417  Biso 1.0 Mo
Mo18 1.0000000000 0.8062829583 0.1937170417 0.8062829583  Biso 1.0 Mo
Mo19 1.0000000000 0.1937170417 0.1937170417 0.8062829583  Biso 1.0 Mo
Mo20 1.0000000000 0.8062829583 0.8062829583 0.1937170417  Biso 1.0 Mo
Mo21 1.0000000000 0.8062829583 0.1937170417 0.1937170417  Biso 1.0 Mo
Mo22 1.0000000000 0.1937170417 0.8062829583 0.8062829583  Biso 1.0 Mo
Mo23 1.0000000000 0.4437170417 0.4437170417 0.0562829583  Biso 1.0 Mo
Mo24 1.0000000000 0.0562829583 0.0562829583 0.4437170417  Biso 1.0 Mo
Mo25 1.0000000000 0.4437170417 0.0562829583 0.4437170417  Biso 1.0 Mo
Mo26 1.0000000000 0.0562829583 0.4437170417 0.0562829583  Biso 1.0 Mo
Mo27 1.0000000000 0.4437170417 0.0562829583 0.0562829583  Biso 1.0 Mo
Mo28 1.0000000000 0.0562829583 0.4437170417 0.4437170417  Biso 1.0 Mo
