# AFLOW.org Repositories
# C1In1Ti2   [HEX,HEX,hP8] (STD_PRIM doi:1
data_C1In1Ti2
_pd_phase_name C1In1Ti2
_cell_length_a  3.1815314670
_cell_length_b  3.1815314670
_cell_length_c  14.3104687527
_cell_angle_alpha  90.0000000000
_cell_angle_beta  90.0000000000
_cell_angle_gamma  120.0000000000
_symmetry_space_group_name_H-M  'P1'
_symmetry_Int_Tables_Number  1
loop_
_symmetry_equiv_pos_site_id
_symmetry_equiv_pos_as_xyz
  1  x,y,z
loop_
 _atom_site_label
 _atom_site_occupancy
 _atom_site_fract_x
 _atom_site_fract_y
 _atom_site_fract_z
 _atom_site_thermal_displace_type
 _atom_site_B_iso_or_equiv
 _atom_site_type_symbol
C1 1.0000000000 0.0000000000 0.0000000000 0.0000000000  Biso 1.0 C
C2 1.0000000000 0.0000000000 0.0000000000 0.5000000000  Biso 1.0 C
In3 1.0000000000 0.3333738226 0.6666869113 0.7500000000  Biso 1.0 In
In4 1.0000000000 0.6666261774 0.3333130887 0.2500000000  Biso 1.0 In
Ti5 1.0000000000 0.3333351156 0.6666675578 0.0797685563  Biso 1.0 Ti
Ti6 1.0000000000 0.6666648844 0.3333324422 0.5797685563  Biso 1.0 Ti
Ti7 1.0000000000 0.6666648844 0.3333324422 0.9202314437  Biso 1.0 Ti
Ti8 1.0000000000 0.3333351156 0.6666675578 0.4202314437  Biso 1.0 Ti
