# AFLOW.org Repositories
# C1K4O4   [TET,TET,tP18] (STD_PRIM doi:10
data_C1K4O4
_pd_phase_name C1K4O4
_cell_length_a  7.2150369006
_cell_length_b  7.2150369006
_cell_length_c  5.5241964189
_cell_angle_alpha  90.0000000000
_cell_angle_beta  90.0000000000
_cell_angle_gamma  90.0000000000
_symmetry_space_group_name_H-M  'P1'
_symmetry_Int_Tables_Number  1
loop_
_symmetry_equiv_pos_site_id
_symmetry_equiv_pos_as_xyz
  1  x,y,z
loop_
 _atom_site_label
 _atom_site_occupancy
 _atom_site_fract_x
 _atom_site_fract_y
 _atom_site_fract_z
 _atom_site_thermal_displace_type
 _atom_site_B_iso_or_equiv
 _atom_site_type_symbol
C1 1.0000000000 0.2500000000 0.2500000000 0.7500000000  Biso 1.0 C
C2 1.0000000000 0.7500000000 0.7500000000 0.2500000000  Biso 1.0 C
K3 1.0000000000 0.7482319383 0.4709945186 0.8907600557  Biso 1.0 K
K4 1.0000000000 0.7517680617 0.0290054814 0.8907600557  Biso 1.0 K
K5 1.0000000000 0.5290054814 0.2482319383 0.3907600557  Biso 1.0 K
K6 1.0000000000 0.9709945186 0.2517680617 0.3907600557  Biso 1.0 K
K7 1.0000000000 0.2517680617 0.5290054814 0.1092399443  Biso 1.0 K
K8 1.0000000000 0.2482319383 0.9709945186 0.1092399443  Biso 1.0 K
K9 1.0000000000 0.4709945186 0.7517680617 0.6092399443  Biso 1.0 K
K10 1.0000000000 0.0290054814 0.7482319383 0.6092399443  Biso 1.0 K
O11 1.0000000000 0.2483048614 0.0848557626 0.6023940120  Biso 1.0 O
O12 1.0000000000 0.2516951386 0.4151442374 0.6023940120  Biso 1.0 O
O13 1.0000000000 0.9151442374 0.7483048614 0.1023940120  Biso 1.0 O
O14 1.0000000000 0.5848557626 0.7516951386 0.1023940120  Biso 1.0 O
O15 1.0000000000 0.7516951386 0.9151442374 0.3976059880  Biso 1.0 O
O16 1.0000000000 0.7483048614 0.5848557626 0.3976059880  Biso 1.0 O
O17 1.0000000000 0.0848557626 0.2516951386 0.8976059880  Biso 1.0 O
O18 1.0000000000 0.4151442374 0.2483048614 0.8976059880  Biso 1.0 O
