# AFLOW.org Repositories
# C1Li4O4   [BCT,BCT1,tI18] (STD_PRIM doi:
data_C1Li4O4
_pd_phase_name C1Li4O4
_cell_length_a  5.0788625776
_cell_length_b  5.0788625776
_cell_length_c  5.0788625776
_cell_angle_alpha  100.7531709512
_cell_angle_beta  100.7531709512
_cell_angle_gamma  128.8176004966
_symmetry_space_group_name_H-M  'P1'
_symmetry_Int_Tables_Number  1
loop_
_symmetry_equiv_pos_site_id
_symmetry_equiv_pos_as_xyz
  1  x,y,z
loop_
 _atom_site_label
 _atom_site_occupancy
 _atom_site_fract_x
 _atom_site_fract_y
 _atom_site_fract_z
 _atom_site_thermal_displace_type
 _atom_site_B_iso_or_equiv
 _atom_site_type_symbol
C1 1.0000000000 0.5000000000 0.5000000000 0.0000000000  Biso 1.0 C
Li2 1.0000000000 0.3013190727 0.9610315676 0.0000000000  Biso 1.0 Li
Li3 1.0000000000 0.9610315676 0.3013190727 0.0000000000  Biso 1.0 Li
Li4 1.0000000000 0.6986809273 0.6986809273 0.6597124949  Biso 1.0 Li
Li5 1.0000000000 0.0389684324 0.0389684324 0.3402875051  Biso 1.0 Li
O6 1.0000000000 0.5660733276 0.8156543290 0.0000000000  Biso 1.0 O
O7 1.0000000000 0.8156543290 0.5660733276 0.0000000000  Biso 1.0 O
O8 1.0000000000 0.4339266724 0.4339266724 0.2495810014  Biso 1.0 O
O9 1.0000000000 0.1843456710 0.1843456710 0.7504189986  Biso 1.0 O
