# AFLOW.org Repositories
# C1V2   [ORC,ORC,oP12] (STD_PRIM doi:10.1
data_C1V2
_pd_phase_name C1V2
_cell_length_a  4.5566787456
_cell_length_b  5.0578636618
_cell_length_c  5.8432646518
_cell_angle_alpha  90.0000000000
_cell_angle_beta  90.0000000000
_cell_angle_gamma  90.0000000000
_symmetry_space_group_name_H-M  'P1'
_symmetry_Int_Tables_Number  1
loop_
_symmetry_equiv_pos_site_id
_symmetry_equiv_pos_as_xyz
  1  x,y,z
loop_
 _atom_site_label
 _atom_site_occupancy
 _atom_site_fract_x
 _atom_site_fract_y
 _atom_site_fract_z
 _atom_site_thermal_displace_type
 _atom_site_B_iso_or_equiv
 _atom_site_type_symbol
C1 1.0000000000 0.0000000000 0.2500000000 0.3745717318  Biso 1.0 C
C2 1.0000000000 0.5000000000 0.7500000000 0.1254282682  Biso 1.0 C
C3 1.0000000000 0.0000000000 0.7500000000 0.6254282682  Biso 1.0 C
C4 1.0000000000 0.5000000000 0.2500000000 0.8745717318  Biso 1.0 C
V5 1.0000000000 0.7581986395 0.0760583587 0.1167903653  Biso 1.0 V
V6 1.0000000000 0.7418013605 0.5760583587 0.3832096347  Biso 1.0 V
V7 1.0000000000 0.2418013605 0.4239416413 0.1167903653  Biso 1.0 V
V8 1.0000000000 0.2581986395 0.9239416413 0.3832096347  Biso 1.0 V
V9 1.0000000000 0.2418013605 0.9239416413 0.8832096347  Biso 1.0 V
V10 1.0000000000 0.2581986395 0.4239416413 0.6167903653  Biso 1.0 V
V11 1.0000000000 0.7581986395 0.5760583587 0.8832096347  Biso 1.0 V
V12 1.0000000000 0.7418013605 0.0760583587 0.6167903653  Biso 1.0 V
