# AFLOW.org Repositories
# C2Dy2Re1   [ORC,ORC,oP20] (STD_PRIM doi:
data_C2Dy2Re1
_pd_phase_name C2Dy2Re1
_cell_length_a  5.1246151186
_cell_length_b  6.5894299536
_cell_length_c  9.8678854770
_cell_angle_alpha  90.0000000000
_cell_angle_beta  90.0000000000
_cell_angle_gamma  90.0000000000
_symmetry_space_group_name_H-M  'P1'
_symmetry_Int_Tables_Number  1
loop_
_symmetry_equiv_pos_site_id
_symmetry_equiv_pos_as_xyz
  1  x,y,z
loop_
 _atom_site_label
 _atom_site_occupancy
 _atom_site_fract_x
 _atom_site_fract_y
 _atom_site_fract_z
 _atom_site_thermal_displace_type
 _atom_site_B_iso_or_equiv
 _atom_site_type_symbol
C1 1.0000000000 0.2500000000 0.0457275678 0.7410005830  Biso 1.0 C
C2 1.0000000000 0.7500000000 0.4542724322 0.2410005830  Biso 1.0 C
C3 1.0000000000 0.7500000000 0.9542724322 0.2589994170  Biso 1.0 C
C4 1.0000000000 0.2500000000 0.5457275678 0.7589994170  Biso 1.0 C
C5 1.0000000000 0.2500000000 0.6768622314 0.4504045819  Biso 1.0 C
C6 1.0000000000 0.7500000000 0.8231377686 0.9504045819  Biso 1.0 C
C7 1.0000000000 0.7500000000 0.3231377686 0.5495954181  Biso 1.0 C
C8 1.0000000000 0.2500000000 0.1768622314 0.0495954181  Biso 1.0 C
Dy9 1.0000000000 0.2500000000 0.8195547907 0.9441692779  Biso 1.0 Dy
Dy10 1.0000000000 0.7500000000 0.6804452093 0.4441692779  Biso 1.0 Dy
Dy11 1.0000000000 0.7500000000 0.1804452093 0.0558307221  Biso 1.0 Dy
Dy12 1.0000000000 0.2500000000 0.3195547907 0.5558307221  Biso 1.0 Dy
Dy13 1.0000000000 0.2500000000 0.4679928049 0.2157874353  Biso 1.0 Dy
Dy14 1.0000000000 0.7500000000 0.0320071951 0.7157874353  Biso 1.0 Dy
Dy15 1.0000000000 0.7500000000 0.5320071951 0.7842125647  Biso 1.0 Dy
Dy16 1.0000000000 0.2500000000 0.9679928049 0.2842125647  Biso 1.0 Dy
Re17 1.0000000000 0.2500000000 0.2787144100 0.8661180723  Biso 1.0 Re
Re18 1.0000000000 0.7500000000 0.2212855900 0.3661180723  Biso 1.0 Re
Re19 1.0000000000 0.7500000000 0.7212855900 0.1338819277  Biso 1.0 Re
Re20 1.0000000000 0.2500000000 0.7787144100 0.6338819277  Biso 1.0 Re
