# AFLOW.org Repositories
# C2Er1   [BCT,BCT2,tI6] (STD_PRIM doi:10.
data_C2Er1
_pd_phase_name C2Er1
_cell_length_a  3.9969190992
_cell_length_b  3.9969190992
_cell_length_c  3.9969190992
_cell_angle_alpha  126.0712952911
_cell_angle_beta  126.0712952911
_cell_angle_gamma  79.7709935573
_symmetry_space_group_name_H-M  'P1'
_symmetry_Int_Tables_Number  1
loop_
_symmetry_equiv_pos_site_id
_symmetry_equiv_pos_as_xyz
  1  x,y,z
loop_
 _atom_site_label
 _atom_site_occupancy
 _atom_site_fract_x
 _atom_site_fract_y
 _atom_site_fract_z
 _atom_site_thermal_displace_type
 _atom_site_B_iso_or_equiv
 _atom_site_type_symbol
C1 1.0000000000 0.3935403770 0.3935403770 0.0000000000  Biso 1.0 C
C2 1.0000000000 0.6064596230 0.6064596230 0.0000000000  Biso 1.0 C
Er3 1.0000000000 0.0000000000 0.0000000000 0.0000000000  Biso 1.0 Er
