# AFLOW.org Repositories
# C2Si1Ti3   [HEX,HEX,hP12] (STD_PRIM doi:
data_C2Si1Ti3
_pd_phase_name C2Si1Ti3
_cell_length_a  3.1221398792
_cell_length_b  3.1221398792
_cell_length_c  17.9012468872
_cell_angle_alpha  90.0000000000
_cell_angle_beta  90.0000000000
_cell_angle_gamma  120.0000000000
_symmetry_space_group_name_H-M  'P1'
_symmetry_Int_Tables_Number  1
loop_
_symmetry_equiv_pos_site_id
_symmetry_equiv_pos_as_xyz
  1  x,y,z
loop_
 _atom_site_label
 _atom_site_occupancy
 _atom_site_fract_x
 _atom_site_fract_y
 _atom_site_fract_z
 _atom_site_thermal_displace_type
 _atom_site_B_iso_or_equiv
 _atom_site_type_symbol
C1 1.0000000000 0.6666632046 0.3333264092 0.0726133123  Biso 1.0 C
C2 1.0000000000 0.3333367954 0.6666735908 0.5726133123  Biso 1.0 C
C3 1.0000000000 0.3333367954 0.6666735908 0.9273866877  Biso 1.0 C
C4 1.0000000000 0.6666632046 0.3333264092 0.4273866877  Biso 1.0 C
Si5 1.0000000000 0.0000000000 0.0000000000 0.2500000000  Biso 1.0 Si
Si6 1.0000000000 0.0000000000 0.0000000000 0.7500000000  Biso 1.0 Si
Ti7 1.0000000000 0.0000000000 0.0000000000 0.0000000000  Biso 1.0 Ti
Ti8 1.0000000000 0.0000000000 0.0000000000 0.5000000000  Biso 1.0 Ti
Ti9 1.0000000000 0.3333311988 0.6666623975 0.1363364999  Biso 1.0 Ti
Ti10 1.0000000000 0.6666688012 0.3333376025 0.6363364999  Biso 1.0 Ti
Ti11 1.0000000000 0.6666688012 0.3333376025 0.8636635001  Biso 1.0 Ti
Ti12 1.0000000000 0.3333311988 0.6666623975 0.3636635001  Biso 1.0 Ti
