# AFLOW.org Repositories
# C3N4   [CUB,CUB,cP7] (STD_PRIM doi:10.10
data_C3N4
_pd_phase_name C3N4
_cell_length_a  3.4557591291
_cell_length_b  3.4557591291
_cell_length_c  3.4557591291
_cell_angle_alpha  90.0000000000
_cell_angle_beta  90.0000000000
_cell_angle_gamma  90.0000000000
_symmetry_space_group_name_H-M  'P1'
_symmetry_Int_Tables_Number  1
loop_
_symmetry_equiv_pos_site_id
_symmetry_equiv_pos_as_xyz
  1  x,y,z
loop_
 _atom_site_label
 _atom_site_occupancy
 _atom_site_fract_x
 _atom_site_fract_y
 _atom_site_fract_z
 _atom_site_thermal_displace_type
 _atom_site_B_iso_or_equiv
 _atom_site_type_symbol
C1 1.0000000000 0.5000000000 0.5000000000 0.0000000000  Biso 1.0 C
C2 1.0000000000 0.0000000000 0.5000000000 0.5000000000  Biso 1.0 C
C3 1.0000000000 0.5000000000 0.0000000000 0.5000000000  Biso 1.0 C
N4 1.0000000000 0.7457144727 0.7457144727 0.2542855273  Biso 1.0 N
N5 1.0000000000 0.2542855273 0.2542855273 0.2542855273  Biso 1.0 N
N6 1.0000000000 0.2542855273 0.7457144727 0.7457144727  Biso 1.0 N
N7 1.0000000000 0.7457144727 0.2542855273 0.7457144727  Biso 1.0 N
