# AFLOW.org Repositories
# Ca1Ge1N2   [BCT,BCT2,tI16] (STD_PRIM doi
data_Ca1Ge1N2
_pd_phase_name Ca1Ge1N2
_cell_length_a  5.2979611965
_cell_length_b  5.2979611965
_cell_length_c  5.2979611965
_cell_angle_alpha  117.9603704415
_cell_angle_beta  117.9603704415
_cell_angle_gamma  93.5706064326
_symmetry_space_group_name_H-M  'P1'
_symmetry_Int_Tables_Number  1
loop_
_symmetry_equiv_pos_site_id
_symmetry_equiv_pos_as_xyz
  1  x,y,z
loop_
 _atom_site_label
 _atom_site_occupancy
 _atom_site_fract_x
 _atom_site_fract_y
 _atom_site_fract_z
 _atom_site_thermal_displace_type
 _atom_site_B_iso_or_equiv
 _atom_site_type_symbol
Ca1 1.0000000000 0.5000000000 0.5000000000 0.0000000000  Biso 1.0 Ca
Ca2 1.0000000000 0.7500000000 0.2500000000 0.5000000000  Biso 1.0 Ca
Ge3 1.0000000000 0.0000000000 0.0000000000 0.0000000000  Biso 1.0 Ge
Ge4 1.0000000000 0.2500000000 0.7500000000 0.5000000000  Biso 1.0 Ge
N5 1.0000000000 0.2977312629 0.8750000000 0.9227312629  Biso 1.0 N
N6 1.0000000000 0.9522687371 0.3750000000 0.0772687371  Biso 1.0 N
N7 1.0000000000 0.1250000000 0.0477312629 0.4227312629  Biso 1.0 N
N8 1.0000000000 0.6250000000 0.7022687371 0.5772687371  Biso 1.0 N
