# AFLOW.org Repositories
# Ca1Ge1Zn1   [HEX,HEX,hP6] (STD_PRIM doi:
data_Ca1Ge1Zn1
_pd_phase_name Ca1Ge1Zn1
_cell_length_a  4.3071677215
_cell_length_b  4.3071677215
_cell_length_c  8.1884512365
_cell_angle_alpha  90.0000000000
_cell_angle_beta  90.0000000000
_cell_angle_gamma  120.0000000000
_symmetry_space_group_name_H-M  'P1'
_symmetry_Int_Tables_Number  1
loop_
_symmetry_equiv_pos_site_id
_symmetry_equiv_pos_as_xyz
  1  x,y,z
loop_
 _atom_site_label
 _atom_site_occupancy
 _atom_site_fract_x
 _atom_site_fract_y
 _atom_site_fract_z
 _atom_site_thermal_displace_type
 _atom_site_B_iso_or_equiv
 _atom_site_type_symbol
Ca1 1.0000000000 0.0000000000 0.0000000000 0.0000000000  Biso 1.0 Ca
Ca2 1.0000000000 0.0000000000 0.0000000000 0.5000000000  Biso 1.0 Ca
Ge3 1.0000000000 0.3333501516 0.6666750758 0.7500000000  Biso 1.0 Ge
Ge4 1.0000000000 0.6666498484 0.3333249242 0.2500000000  Biso 1.0 Ge
Zn5 1.0000000000 0.3333508653 0.6666754327 0.2500000000  Biso 1.0 Zn
Zn6 1.0000000000 0.6666491347 0.3333245673 0.7500000000  Biso 1.0 Zn
