# AFLOW.org Repositories
# Ca1In2Pd1   [ORCC,ORCC,oS16] (STD_PRIM d
data_Ca1In2Pd1
_pd_phase_name Ca1In2Pd1
_cell_length_a  5.6680205267
_cell_length_b  5.6680205267
_cell_length_c  7.9494575942
_cell_angle_alpha  90.0000000000
_cell_angle_beta  90.0000000000
_cell_angle_gamma  133.2253182723
_symmetry_space_group_name_H-M  'P1'
_symmetry_Int_Tables_Number  1
loop_
_symmetry_equiv_pos_site_id
_symmetry_equiv_pos_as_xyz
  1  x,y,z
loop_
 _atom_site_label
 _atom_site_occupancy
 _atom_site_fract_x
 _atom_site_fract_y
 _atom_site_fract_z
 _atom_site_thermal_displace_type
 _atom_site_B_iso_or_equiv
 _atom_site_type_symbol
Ca1 1.0000000000 0.9348939886 0.0651060114 0.7500000000  Biso 1.0 Ca
Ca2 1.0000000000 0.0651060114 0.9348939886 0.2500000000  Biso 1.0 Ca
In3 1.0000000000 0.6449666059 0.3550333941 0.9468279266  Biso 1.0 In
In4 1.0000000000 0.3550333941 0.6449666059 0.4468279266  Biso 1.0 In
In5 1.0000000000 0.6449666059 0.3550333941 0.5531720734  Biso 1.0 In
In6 1.0000000000 0.3550333941 0.6449666059 0.0531720734  Biso 1.0 In
Pd7 1.0000000000 0.2181866264 0.7818133736 0.7500000000  Biso 1.0 Pd
Pd8 1.0000000000 0.7818133736 0.2181866264 0.2500000000  Biso 1.0 Pd
