# AFLOW.org Repositories
# Ca1In2P2   [HEX,HEX,hP10] (STD_PRIM doi:
data_Ca1In2P2
_pd_phase_name Ca1In2P2
_cell_length_a  4.0660315662
_cell_length_b  4.0660315662
_cell_length_c  17.5979996723
_cell_angle_alpha  90.0000000000
_cell_angle_beta  90.0000000000
_cell_angle_gamma  120.0000000000
_symmetry_space_group_name_H-M  'P1'
_symmetry_Int_Tables_Number  1
loop_
_symmetry_equiv_pos_site_id
_symmetry_equiv_pos_as_xyz
  1  x,y,z
loop_
 _atom_site_label
 _atom_site_occupancy
 _atom_site_fract_x
 _atom_site_fract_y
 _atom_site_fract_z
 _atom_site_thermal_displace_type
 _atom_site_B_iso_or_equiv
 _atom_site_type_symbol
Ca1 1.0000000000 0.0000000000 0.0000000000 0.5000000000  Biso 1.0 Ca
Ca2 1.0000000000 0.0000000000 0.0000000000 0.0000000000  Biso 1.0 Ca
In3 1.0000000000 0.6666726699 0.3333273301 0.3300546668  Biso 1.0 In
In4 1.0000000000 0.3333273301 0.6666726699 0.8300546668  Biso 1.0 In
In5 1.0000000000 0.3333273301 0.6666726699 0.6699453332  Biso 1.0 In
In6 1.0000000000 0.6666726699 0.3333273301 0.1699453332  Biso 1.0 In
P7 1.0000000000 0.3333346868 0.6666653132 0.3975736001  Biso 1.0 P
P8 1.0000000000 0.6666653132 0.3333346868 0.8975736001  Biso 1.0 P
P9 1.0000000000 0.6666653132 0.3333346868 0.6024263999  Biso 1.0 P
P10 1.0000000000 0.3333346868 0.6666653132 0.1024263999  Biso 1.0 P
