# AFLOW.org Repositories
# Ca1Li1Si2   [ORC,ORC,oP16] (STD_PRIM doi
data_Ca1Li1Si2
_pd_phase_name Ca1Li1Si2
_cell_length_a  3.8050499424
_cell_length_b  7.9339076863
_cell_length_c  10.6501635250
_cell_angle_alpha  90.0000000000
_cell_angle_beta  90.0000000000
_cell_angle_gamma  90.0000000000
_symmetry_space_group_name_H-M  'P1'
_symmetry_Int_Tables_Number  1
loop_
_symmetry_equiv_pos_site_id
_symmetry_equiv_pos_as_xyz
  1  x,y,z
loop_
 _atom_site_label
 _atom_site_occupancy
 _atom_site_fract_x
 _atom_site_fract_y
 _atom_site_fract_z
 _atom_site_thermal_displace_type
 _atom_site_B_iso_or_equiv
 _atom_site_type_symbol
Ca1 1.0000000000 0.2500000000 0.1348071958 0.8644224718  Biso 1.0 Ca
Ca2 1.0000000000 0.7500000000 0.3651928042 0.3644224718  Biso 1.0 Ca
Ca3 1.0000000000 0.7500000000 0.8651928042 0.1355775282  Biso 1.0 Ca
Ca4 1.0000000000 0.2500000000 0.6348071958 0.6355775282  Biso 1.0 Ca
Li5 1.0000000000 0.2500000000 0.9982776897 0.3877403503  Biso 1.0 Li
Li6 1.0000000000 0.7500000000 0.5017223103 0.8877403503  Biso 1.0 Li
Li7 1.0000000000 0.7500000000 0.0017223103 0.6122596497  Biso 1.0 Li
Li8 1.0000000000 0.2500000000 0.4982776897 0.1122596497  Biso 1.0 Li
Si9 1.0000000000 0.2500000000 0.2305571793 0.5682849679  Biso 1.0 Si
Si10 1.0000000000 0.7500000000 0.2694428207 0.0682849679  Biso 1.0 Si
Si11 1.0000000000 0.7500000000 0.7694428207 0.4317150321  Biso 1.0 Si
Si12 1.0000000000 0.2500000000 0.7305571793 0.9317150321  Biso 1.0 Si
Si13 1.0000000000 0.2500000000 0.6655786721 0.3258866846  Biso 1.0 Si
Si14 1.0000000000 0.7500000000 0.8344213279 0.8258866846  Biso 1.0 Si
Si15 1.0000000000 0.7500000000 0.3344213279 0.6741133154  Biso 1.0 Si
Si16 1.0000000000 0.2500000000 0.1655786721 0.1741133154  Biso 1.0 Si
