# AFLOW.org Repositories
# Ca1Mg2   [HEX,HEX,hP12] (STD_PRIM doi:10
data_Ca1Mg2
_pd_phase_name Ca1Mg2
_cell_length_a  6.2282191153
_cell_length_b  6.2282191153
_cell_length_c  10.0737574849
_cell_angle_alpha  90.0000000000
_cell_angle_beta  90.0000000000
_cell_angle_gamma  120.0000000000
_symmetry_space_group_name_H-M  'P1'
_symmetry_Int_Tables_Number  1
loop_
_symmetry_equiv_pos_site_id
_symmetry_equiv_pos_as_xyz
  1  x,y,z
loop_
 _atom_site_label
 _atom_site_occupancy
 _atom_site_fract_x
 _atom_site_fract_y
 _atom_site_fract_z
 _atom_site_thermal_displace_type
 _atom_site_B_iso_or_equiv
 _atom_site_type_symbol
Ca1 1.0000000000 0.3333640013 0.6666820006 0.0622780023  Biso 1.0 Ca
Ca2 1.0000000000 0.6666359987 0.3333179994 0.5622780023  Biso 1.0 Ca
Ca3 1.0000000000 0.6666359987 0.3333179994 0.9377219977  Biso 1.0 Ca
Ca4 1.0000000000 0.3333640013 0.6666820006 0.4377219977  Biso 1.0 Ca
Mg5 1.0000000000 0.0000000000 0.0000000000 0.0000000000  Biso 1.0 Mg
Mg6 1.0000000000 0.0000000000 0.0000000000 0.5000000000  Biso 1.0 Mg
Mg7 1.0000000000 0.8316106661 0.1684144634 0.2500000000  Biso 1.0 Mg
Mg8 1.0000000000 0.8316106661 0.6631962028 0.2500000000  Biso 1.0 Mg
Mg9 1.0000000000 0.3367916293 0.1683958147 0.2500000000  Biso 1.0 Mg
Mg10 1.0000000000 0.1683893339 0.8315855366 0.7500000000  Biso 1.0 Mg
Mg11 1.0000000000 0.1683893339 0.3368037972 0.7500000000  Biso 1.0 Mg
Mg12 1.0000000000 0.6632083707 0.8316041853 0.7500000000  Biso 1.0 Mg
