# AFLOW.org Repositories
# Ca1Sn1Zn1   [HEX,HEX,hP6] (STD_PRIM doi:
data_Ca1Sn1Zn1
_pd_phase_name Ca1Sn1Zn1
_cell_length_a  4.7056842975
_cell_length_b  4.7056842975
_cell_length_c  7.6212905819
_cell_angle_alpha  90.0000000000
_cell_angle_beta  90.0000000000
_cell_angle_gamma  120.0000000000
_symmetry_space_group_name_H-M  'P1'
_symmetry_Int_Tables_Number  1
loop_
_symmetry_equiv_pos_site_id
_symmetry_equiv_pos_as_xyz
  1  x,y,z
loop_
 _atom_site_label
 _atom_site_occupancy
 _atom_site_fract_x
 _atom_site_fract_y
 _atom_site_fract_z
 _atom_site_thermal_displace_type
 _atom_site_B_iso_or_equiv
 _atom_site_type_symbol
Ca1 1.0000000000 0.0000000000 0.0000000000 0.2465969247  Biso 1.0 Ca
Ca2 1.0000000000 0.0000000000 0.0000000000 0.7465969247  Biso 1.0 Ca
Sn3 1.0000000000 0.6666648852 0.3333297704 0.4664549370  Biso 1.0 Sn
Sn4 1.0000000000 0.3333351148 0.6666702296 0.9664549370  Biso 1.0 Sn
Zn5 1.0000000000 0.6666678231 0.3333356462 0.0527481382  Biso 1.0 Zn
Zn6 1.0000000000 0.3333321769 0.6666643538 0.5527481382  Biso 1.0 Zn
