# AFLOW.org Repositories
# Ca3Hg1   [ORC,ORC,oP16] (STD_PRIM doi:10
data_Ca3Hg1
_pd_phase_name Ca3Hg1
_cell_length_a  6.8516704059
_cell_length_b  8.1263925400
_cell_length_c  10.2206289368
_cell_angle_alpha  90.0000000000
_cell_angle_beta  90.0000000000
_cell_angle_gamma  90.0000000000
_symmetry_space_group_name_H-M  'P1'
_symmetry_Int_Tables_Number  1
loop_
_symmetry_equiv_pos_site_id
_symmetry_equiv_pos_as_xyz
  1  x,y,z
loop_
 _atom_site_label
 _atom_site_occupancy
 _atom_site_fract_x
 _atom_site_fract_y
 _atom_site_fract_z
 _atom_site_thermal_displace_type
 _atom_site_B_iso_or_equiv
 _atom_site_type_symbol
Ca1 1.0000000000 0.8434917578 0.1781605610 0.9415412272  Biso 1.0 Ca
Ca2 1.0000000000 0.3434917578 0.3218394390 0.0584587728  Biso 1.0 Ca
Ca3 1.0000000000 0.1565082422 0.8218394390 0.4415412272  Biso 1.0 Ca
Ca4 1.0000000000 0.6565082422 0.6781605610 0.5584587728  Biso 1.0 Ca
Ca5 1.0000000000 0.1565082422 0.8218394390 0.0584587728  Biso 1.0 Ca
Ca6 1.0000000000 0.6565082422 0.6781605610 0.9415412272  Biso 1.0 Ca
Ca7 1.0000000000 0.8434917578 0.1781605610 0.5584587728  Biso 1.0 Ca
Ca8 1.0000000000 0.3434917578 0.3218394390 0.4415412272  Biso 1.0 Ca
Ca9 1.0000000000 0.3714378010 0.0292313425 0.7500000000  Biso 1.0 Ca
Ca10 1.0000000000 0.8714378010 0.4707686575 0.2500000000  Biso 1.0 Ca
Ca11 1.0000000000 0.6285621990 0.9707686575 0.2500000000  Biso 1.0 Ca
Ca12 1.0000000000 0.1285621990 0.5292313425 0.7500000000  Biso 1.0 Ca
Hg13 1.0000000000 0.5579044624 0.3811092600 0.7500000000  Biso 1.0 Hg
Hg14 1.0000000000 0.0579044624 0.1188907400 0.2500000000  Biso 1.0 Hg
Hg15 1.0000000000 0.4420955376 0.6188907400 0.2500000000  Biso 1.0 Hg
Hg16 1.0000000000 0.9420955376 0.8811092600 0.7500000000  Biso 1.0 Hg
