# AFLOW.org Repositories
# Ca3N3V1   [ORCC,ORCC,oS28] (STD_PRIM doi
data_Ca3N3V1
_pd_phase_name Ca3N3V1
_cell_length_a  6.7451185653
_cell_length_b  6.7451185653
_cell_length_c  5.0823219804
_cell_angle_alpha  90.0000000000
_cell_angle_beta  90.0000000000
_cell_angle_gamma  101.0780109132
_symmetry_space_group_name_H-M  'P1'
_symmetry_Int_Tables_Number  1
loop_
_symmetry_equiv_pos_site_id
_symmetry_equiv_pos_as_xyz
  1  x,y,z
loop_
 _atom_site_label
 _atom_site_occupancy
 _atom_site_fract_x
 _atom_site_fract_y
 _atom_site_fract_z
 _atom_site_thermal_displace_type
 _atom_site_B_iso_or_equiv
 _atom_site_type_symbol
Ca1 1.0000000000 0.6077178549 0.8923070636 0.2500000000  Biso 1.0 Ca
Ca2 1.0000000000 0.3922821451 0.1076929364 0.7500000000  Biso 1.0 Ca
Ca3 1.0000000000 0.0998796499 0.8294926230 0.2500000000  Biso 1.0 Ca
Ca4 1.0000000000 0.9001203501 0.1705073770 0.7500000000  Biso 1.0 Ca
Ca5 1.0000000000 0.6701304167 0.4003850173 0.2500000000  Biso 1.0 Ca
Ca6 1.0000000000 0.3298695833 0.5996149827 0.7500000000  Biso 1.0 Ca
N7 1.0000000000 0.3737863402 0.1260502562 0.2500000000  Biso 1.0 N
N8 1.0000000000 0.6262136598 0.8739497438 0.7500000000  Biso 1.0 N
N9 1.0000000000 0.6813736341 0.4290316850 0.7500000000  Biso 1.0 N
N10 1.0000000000 0.3186263659 0.5709683150 0.2500000000  Biso 1.0 N
N11 1.0000000000 0.0707106628 0.8174049363 0.7500000000  Biso 1.0 N
N12 1.0000000000 0.9292893372 0.1825950637 0.2500000000  Biso 1.0 N
V13 1.0000000000 0.1968408933 0.3033275899 0.2500000000  Biso 1.0 V
V14 1.0000000000 0.8031591067 0.6966724101 0.7500000000  Biso 1.0 V
