# AFLOW.org Repositories
# Ca3N2   [BCC,BCC,cI80] (STD_PRIM doi:10.
data_Ca3N2
_pd_phase_name Ca3N2
_cell_length_a  9.9396192864
_cell_length_b  9.9396192864
_cell_length_c  9.9396192864
_cell_angle_alpha  109.4712206345
_cell_angle_beta  109.4712206345
_cell_angle_gamma  109.4712206345
_symmetry_space_group_name_H-M  'P1'
_symmetry_Int_Tables_Number  1
loop_
_symmetry_equiv_pos_site_id
_symmetry_equiv_pos_as_xyz
  1  x,y,z
loop_
 _atom_site_label
 _atom_site_occupancy
 _atom_site_fract_x
 _atom_site_fract_y
 _atom_site_fract_z
 _atom_site_thermal_displace_type
 _atom_site_B_iso_or_equiv
 _atom_site_type_symbol
Ca1 1.0000000000 0.2276235203 0.4624945128 0.4562370763  Biso 1.0 Ca
Ca2 1.0000000000 0.0062574365 0.2713864440 0.0437629237  Biso 1.0 Ca
Ca3 1.0000000000 0.2723764797 0.2286135560 0.7348709925  Biso 1.0 Ca
Ca4 1.0000000000 0.4937425635 0.0375054872 0.7651290075  Biso 1.0 Ca
Ca5 1.0000000000 0.4624945128 0.4562370763 0.2276235203  Biso 1.0 Ca
Ca6 1.0000000000 0.2713864440 0.0437629237 0.0062574365  Biso 1.0 Ca
Ca7 1.0000000000 0.2286135560 0.7348709925 0.2723764797  Biso 1.0 Ca
Ca8 1.0000000000 0.0375054872 0.7651290075 0.4937425635  Biso 1.0 Ca
Ca9 1.0000000000 0.4562370763 0.2276235203 0.4624945128  Biso 1.0 Ca
Ca10 1.0000000000 0.0437629237 0.0062574365 0.2713864440  Biso 1.0 Ca
Ca11 1.0000000000 0.7348709925 0.2723764797 0.2286135560  Biso 1.0 Ca
Ca12 1.0000000000 0.7651290075 0.4937425635 0.0375054872  Biso 1.0 Ca
Ca13 1.0000000000 0.7723764797 0.5375054872 0.5437629237  Biso 1.0 Ca
Ca14 1.0000000000 0.9937425635 0.7286135560 0.9562370763  Biso 1.0 Ca
Ca15 1.0000000000 0.7276235203 0.7713864440 0.2651290075  Biso 1.0 Ca
Ca16 1.0000000000 0.5062574365 0.9624945128 0.2348709925  Biso 1.0 Ca
Ca17 1.0000000000 0.5375054872 0.5437629237 0.7723764797  Biso 1.0 Ca
Ca18 1.0000000000 0.7286135560 0.9562370763 0.9937425635  Biso 1.0 Ca
Ca19 1.0000000000 0.7713864440 0.2651290075 0.7276235203  Biso 1.0 Ca
Ca20 1.0000000000 0.9624945128 0.2348709925 0.5062574365  Biso 1.0 Ca
Ca21 1.0000000000 0.5437629237 0.7723764797 0.5375054872  Biso 1.0 Ca
Ca22 1.0000000000 0.9562370763 0.9937425635 0.7286135560  Biso 1.0 Ca
Ca23 1.0000000000 0.2651290075 0.7276235203 0.7713864440  Biso 1.0 Ca
Ca24 1.0000000000 0.2348709925 0.5062574365 0.9624945128  Biso 1.0 Ca
N25 1.0000000000 0.7898350437 0.7500000000 0.0398350437  Biso 1.0 N
N26 1.0000000000 0.7101649563 0.2500000000 0.4601649563  Biso 1.0 N
N27 1.0000000000 0.7500000000 0.0398350437 0.7898350437  Biso 1.0 N
N28 1.0000000000 0.2500000000 0.4601649563 0.7101649563  Biso 1.0 N
N29 1.0000000000 0.0398350437 0.7898350437 0.7500000000  Biso 1.0 N
N30 1.0000000000 0.4601649563 0.7101649563 0.2500000000  Biso 1.0 N
N31 1.0000000000 0.2101649563 0.2500000000 0.9601649563  Biso 1.0 N
N32 1.0000000000 0.2898350437 0.7500000000 0.5398350437  Biso 1.0 N
N33 1.0000000000 0.2500000000 0.9601649563 0.2101649563  Biso 1.0 N
N34 1.0000000000 0.7500000000 0.5398350437 0.2898350437  Biso 1.0 N
N35 1.0000000000 0.9601649563 0.2101649563 0.2500000000  Biso 1.0 N
N36 1.0000000000 0.5398350437 0.2898350437 0.7500000000  Biso 1.0 N
N37 1.0000000000 0.5000000000 0.5000000000 0.5000000000  Biso 1.0 N
N38 1.0000000000 0.0000000000 0.5000000000 0.0000000000  Biso 1.0 N
N39 1.0000000000 0.0000000000 0.0000000000 0.5000000000  Biso 1.0 N
N40 1.0000000000 0.5000000000 0.0000000000 0.0000000000  Biso 1.0 N
