# AFLOW.org Repositories
# Ca4Hg9   [CUB,CUB,cP52] (STD_PRIM doi:10
data_Ca4Hg9
_pd_phase_name Ca4Hg9
_cell_length_a  11.1305750655
_cell_length_b  11.1305750655
_cell_length_c  11.1305750655
_cell_angle_alpha  90.0000000000
_cell_angle_beta  90.0000000000
_cell_angle_gamma  90.0000000000
_symmetry_space_group_name_H-M  'P1'
_symmetry_Int_Tables_Number  1
loop_
_symmetry_equiv_pos_site_id
_symmetry_equiv_pos_as_xyz
  1  x,y,z
loop_
 _atom_site_label
 _atom_site_occupancy
 _atom_site_fract_x
 _atom_site_fract_y
 _atom_site_fract_z
 _atom_site_thermal_displace_type
 _atom_site_B_iso_or_equiv
 _atom_site_type_symbol
Ca1 1.0000000000 0.8625158452 0.8625158452 0.1374841548  Biso 1.0 Ca
Ca2 1.0000000000 0.1374841548 0.1374841548 0.1374841548  Biso 1.0 Ca
Ca3 1.0000000000 0.1374841548 0.8625158452 0.8625158452  Biso 1.0 Ca
Ca4 1.0000000000 0.8625158452 0.1374841548 0.8625158452  Biso 1.0 Ca
Ca5 1.0000000000 0.1910932355 0.1910932355 0.5388458557  Biso 1.0 Ca
Ca6 1.0000000000 0.8089067645 0.8089067645 0.5388458557  Biso 1.0 Ca
Ca7 1.0000000000 0.8089067645 0.1910932355 0.4611541443  Biso 1.0 Ca
Ca8 1.0000000000 0.1910932355 0.8089067645 0.4611541443  Biso 1.0 Ca
Ca9 1.0000000000 0.4611541443 0.1910932355 0.8089067645  Biso 1.0 Ca
Ca10 1.0000000000 0.4611541443 0.8089067645 0.1910932355  Biso 1.0 Ca
Ca11 1.0000000000 0.5388458557 0.8089067645 0.8089067645  Biso 1.0 Ca
Ca12 1.0000000000 0.5388458557 0.1910932355 0.1910932355  Biso 1.0 Ca
Ca13 1.0000000000 0.1910932355 0.4611541443 0.8089067645  Biso 1.0 Ca
Ca14 1.0000000000 0.8089067645 0.4611541443 0.1910932355  Biso 1.0 Ca
Ca15 1.0000000000 0.1910932355 0.5388458557 0.1910932355  Biso 1.0 Ca
Ca16 1.0000000000 0.8089067645 0.5388458557 0.8089067645  Biso 1.0 Ca
Hg17 1.0000000000 0.1584746237 0.1584746237 0.8415253763  Biso 1.0 Hg
Hg18 1.0000000000 0.8415253763 0.8415253763 0.8415253763  Biso 1.0 Hg
Hg19 1.0000000000 0.8415253763 0.1584746237 0.1584746237  Biso 1.0 Hg
Hg20 1.0000000000 0.1584746237 0.8415253763 0.1584746237  Biso 1.0 Hg
Hg21 1.0000000000 0.6870428164 0.6870428164 0.3129571836  Biso 1.0 Hg
Hg22 1.0000000000 0.3129571836 0.3129571836 0.3129571836  Biso 1.0 Hg
Hg23 1.0000000000 0.3129571836 0.6870428164 0.6870428164  Biso 1.0 Hg
Hg24 1.0000000000 0.6870428164 0.3129571836 0.6870428164  Biso 1.0 Hg
Hg25 1.0000000000 0.3931805924 0.3931805924 0.6068194076  Biso 1.0 Hg
Hg26 1.0000000000 0.6068194076 0.6068194076 0.6068194076  Biso 1.0 Hg
Hg27 1.0000000000 0.6068194076 0.3931805924 0.3931805924  Biso 1.0 Hg
Hg28 1.0000000000 0.3931805924 0.6068194076 0.3931805924  Biso 1.0 Hg
Hg29 1.0000000000 0.6403991801 0.0000000000 0.0000000000  Biso 1.0 Hg
Hg30 1.0000000000 0.3596008199 0.0000000000 0.0000000000  Biso 1.0 Hg
Hg31 1.0000000000 0.0000000000 0.6403991801 0.0000000000  Biso 1.0 Hg
Hg32 1.0000000000 0.0000000000 0.3596008199 0.0000000000  Biso 1.0 Hg
Hg33 1.0000000000 0.0000000000 0.0000000000 0.3596008199  Biso 1.0 Hg
Hg34 1.0000000000 0.0000000000 0.0000000000 0.6403991801  Biso 1.0 Hg
Hg35 1.0000000000 0.1531634997 0.5000000000 0.5000000000  Biso 1.0 Hg
Hg36 1.0000000000 0.8468365003 0.5000000000 0.5000000000  Biso 1.0 Hg
Hg37 1.0000000000 0.5000000000 0.1531634997 0.5000000000  Biso 1.0 Hg
Hg38 1.0000000000 0.5000000000 0.8468365003 0.5000000000  Biso 1.0 Hg
Hg39 1.0000000000 0.5000000000 0.5000000000 0.8468365003  Biso 1.0 Hg
Hg40 1.0000000000 0.5000000000 0.5000000000 0.1531634997  Biso 1.0 Hg
Hg41 1.0000000000 0.6733753916 0.6733753916 0.0253425719  Biso 1.0 Hg
Hg42 1.0000000000 0.3266246084 0.3266246084 0.0253425719  Biso 1.0 Hg
Hg43 1.0000000000 0.3266246084 0.6733753916 0.9746574281  Biso 1.0 Hg
Hg44 1.0000000000 0.6733753916 0.3266246084 0.9746574281  Biso 1.0 Hg
Hg45 1.0000000000 0.9746574281 0.6733753916 0.3266246084  Biso 1.0 Hg
Hg46 1.0000000000 0.9746574281 0.3266246084 0.6733753916  Biso 1.0 Hg
Hg47 1.0000000000 0.0253425719 0.3266246084 0.3266246084  Biso 1.0 Hg
Hg48 1.0000000000 0.0253425719 0.6733753916 0.6733753916  Biso 1.0 Hg
Hg49 1.0000000000 0.6733753916 0.9746574281 0.3266246084  Biso 1.0 Hg
Hg50 1.0000000000 0.3266246084 0.9746574281 0.6733753916  Biso 1.0 Hg
Hg51 1.0000000000 0.6733753916 0.0253425719 0.6733753916  Biso 1.0 Hg
Hg52 1.0000000000 0.3266246084 0.0253425719 0.3266246084  Biso 1.0 Hg
