# AFLOW.org Repositories
# Ca7Cl2H12   [HEX,HEX,hP21] (STD_PRIM doi
data_Ca7Cl2H12
_pd_phase_name Ca7Cl2H12
_cell_length_a  9.3114591797
_cell_length_b  9.3114591797
_cell_length_c  3.6793848181
_cell_angle_alpha  90.0000000000
_cell_angle_beta  90.0000000000
_cell_angle_gamma  120.0000000000
_symmetry_space_group_name_H-M  'P1'
_symmetry_Int_Tables_Number  1
loop_
_symmetry_equiv_pos_site_id
_symmetry_equiv_pos_as_xyz
  1  x,y,z
loop_
 _atom_site_label
 _atom_site_occupancy
 _atom_site_fract_x
 _atom_site_fract_y
 _atom_site_fract_z
 _atom_site_thermal_displace_type
 _atom_site_B_iso_or_equiv
 _atom_site_type_symbol
Ca1 1.0000000000 0.6666614161 0.3333309821 0.0000000000  Biso 1.0 Ca
Ca2 1.0000000000 0.3607062432 0.9224504696 0.0000000000  Biso 1.0 Ca
Ca3 1.0000000000 0.0775505231 0.4382583100 0.0000000000  Biso 1.0 Ca
Ca4 1.0000000000 0.5617460841 0.6392954481 0.0000000000  Biso 1.0 Ca
Ca5 1.0000000000 0.9485723491 0.7293395056 0.5000000000  Biso 1.0 Ca
Ca6 1.0000000000 0.2706583381 0.2192307187 0.5000000000  Biso 1.0 Ca
Ca7 1.0000000000 0.7807685694 0.0514294504 0.5000000000  Biso 1.0 Ca
Cl8 1.0000000000 0.0000000000 0.0000000000 0.0000000000  Biso 1.0 Cl
Cl9 1.0000000000 0.3333325380 0.6666658276 0.5000000000  Biso 1.0 Cl
H10 1.0000000000 0.0896317049 0.6976725240 0.0000000000  Biso 1.0 H
H11 1.0000000000 0.3023277002 0.3919591593 0.0000000000  Biso 1.0 H
H12 1.0000000000 0.6080445267 0.9103724232 0.0000000000  Biso 1.0 H
H13 1.0000000000 0.7844312413 0.6083209231 0.0000000000  Biso 1.0 H
H14 1.0000000000 0.3916729155 0.1761043660 0.0000000000  Biso 1.0 H
H15 1.0000000000 0.8238926793 0.2155713202 0.0000000000  Biso 1.0 H
H16 1.0000000000 0.2280182196 0.9426642818 0.5000000000  Biso 1.0 H
H17 1.0000000000 0.0573351927 0.2853548741 0.5000000000  Biso 1.0 H
H18 1.0000000000 0.7146509437 0.7719817457 0.5000000000  Biso 1.0 H
H19 1.0000000000 0.8820443857 0.4467944140 0.5000000000  Biso 1.0 H
H20 1.0000000000 0.5532051139 0.4352474668 0.5000000000  Biso 1.0 H
H21 1.0000000000 0.5647502932 0.1179564089 0.5000000000  Biso 1.0 H
