# AFLOW.org Repositories
# Cd13K1   [FCC,FCC,cF112] (STD_PRIM doi:1
data_Cd13K1
_pd_phase_name Cd13K1
_cell_length_a  9.9022902181
_cell_length_b  9.9022902181
_cell_length_c  9.9022902181
_cell_angle_alpha  60.0000000000
_cell_angle_beta  60.0000000000
_cell_angle_gamma  60.0000000000
_symmetry_space_group_name_H-M  'P1'
_symmetry_Int_Tables_Number  1
loop_
_symmetry_equiv_pos_site_id
_symmetry_equiv_pos_as_xyz
  1  x,y,z
loop_
 _atom_site_label
 _atom_site_occupancy
 _atom_site_fract_x
 _atom_site_fract_y
 _atom_site_fract_z
 _atom_site_thermal_displace_type
 _atom_site_B_iso_or_equiv
 _atom_site_type_symbol
Cd1 1.0000000000 0.5591190707 0.8016677390 0.4408809293  Biso 1.0 Cd
Cd2 1.0000000000 0.4408809293 0.1983322610 0.5591190707  Biso 1.0 Cd
Cd3 1.0000000000 0.8016677390 0.5591190707 0.1983322610  Biso 1.0 Cd
Cd4 1.0000000000 0.1983322610 0.4408809293 0.8016677390  Biso 1.0 Cd
Cd5 1.0000000000 0.1983322610 0.5591190707 0.4408809293  Biso 1.0 Cd
Cd6 1.0000000000 0.8016677390 0.4408809293 0.5591190707  Biso 1.0 Cd
Cd7 1.0000000000 0.4408809293 0.8016677390 0.1983322610  Biso 1.0 Cd
Cd8 1.0000000000 0.5591190707 0.1983322610 0.8016677390  Biso 1.0 Cd
Cd9 1.0000000000 0.8016677390 0.1983322610 0.4408809293  Biso 1.0 Cd
Cd10 1.0000000000 0.1983322610 0.8016677390 0.5591190707  Biso 1.0 Cd
Cd11 1.0000000000 0.5591190707 0.4408809293 0.1983322610  Biso 1.0 Cd
Cd12 1.0000000000 0.4408809293 0.5591190707 0.8016677390  Biso 1.0 Cd
Cd13 1.0000000000 0.0591190707 0.6983322610 0.9408809293  Biso 1.0 Cd
Cd14 1.0000000000 0.9408809293 0.3016677390 0.0591190707  Biso 1.0 Cd
Cd15 1.0000000000 0.3016677390 0.9408809293 0.6983322610  Biso 1.0 Cd
Cd16 1.0000000000 0.6983322610 0.0591190707 0.3016677390  Biso 1.0 Cd
Cd17 1.0000000000 0.0591190707 0.9408809293 0.3016677390  Biso 1.0 Cd
Cd18 1.0000000000 0.9408809293 0.0591190707 0.6983322610  Biso 1.0 Cd
Cd19 1.0000000000 0.3016677390 0.6983322610 0.0591190707  Biso 1.0 Cd
Cd20 1.0000000000 0.6983322610 0.3016677390 0.9408809293  Biso 1.0 Cd
Cd21 1.0000000000 0.0591190707 0.3016677390 0.6983322610  Biso 1.0 Cd
Cd22 1.0000000000 0.9408809293 0.6983322610 0.3016677390  Biso 1.0 Cd
Cd23 1.0000000000 0.3016677390 0.0591190707 0.9408809293  Biso 1.0 Cd
Cd24 1.0000000000 0.6983322610 0.9408809293 0.0591190707  Biso 1.0 Cd
Cd25 1.0000000000 0.0000000000 0.0000000000 0.0000000000  Biso 1.0 Cd
Cd26 1.0000000000 0.5000000000 0.5000000000 0.5000000000  Biso 1.0 Cd
K27 1.0000000000 0.7500000000 0.7500000000 0.7500000000  Biso 1.0 K
K28 1.0000000000 0.2500000000 0.2500000000 0.2500000000  Biso 1.0 K
