# AFLOW.org Repositories
# Cd1Er2S4   [FCC,FCC,cF56] (STD_PRIM doi:
data_Cd1Er2S4
_pd_phase_name Cd1Er2S4
_cell_length_a  7.9318711521
_cell_length_b  7.9318711521
_cell_length_c  7.9318711521
_cell_angle_alpha  60.0000000000
_cell_angle_beta  60.0000000000
_cell_angle_gamma  60.0000000000
_symmetry_space_group_name_H-M  'P1'
_symmetry_Int_Tables_Number  1
loop_
_symmetry_equiv_pos_site_id
_symmetry_equiv_pos_as_xyz
  1  x,y,z
loop_
 _atom_site_label
 _atom_site_occupancy
 _atom_site_fract_x
 _atom_site_fract_y
 _atom_site_fract_z
 _atom_site_thermal_displace_type
 _atom_site_B_iso_or_equiv
 _atom_site_type_symbol
Cd1 1.0000000000 0.1250000000 0.6250000000 0.1250000000  Biso 1.0 Cd
Cd2 1.0000000000 0.8750000000 0.3750000000 0.8750000000  Biso 1.0 Cd
Er3 1.0000000000 0.5000000000 0.5000000000 0.5000000000  Biso 1.0 Er
Er4 1.0000000000 0.0000000000 0.0000000000 0.5000000000  Biso 1.0 Er
Er5 1.0000000000 0.5000000000 0.0000000000 0.5000000000  Biso 1.0 Er
Er6 1.0000000000 0.5000000000 0.0000000000 0.0000000000  Biso 1.0 Er
S7 1.0000000000 0.2579477638 0.2261567087 0.2579477638  Biso 1.0 S
S8 1.0000000000 0.7261567087 0.7579477638 0.2579477638  Biso 1.0 S
S9 1.0000000000 0.2579477638 0.7579477638 0.2579477638  Biso 1.0 S
S10 1.0000000000 0.2579477638 0.7579477638 0.7261567087  Biso 1.0 S
S11 1.0000000000 0.2738432913 0.2420522362 0.7420522362  Biso 1.0 S
S12 1.0000000000 0.7420522362 0.7738432913 0.7420522362  Biso 1.0 S
S13 1.0000000000 0.7420522362 0.2420522362 0.7420522362  Biso 1.0 S
S14 1.0000000000 0.7420522362 0.2420522362 0.2738432913  Biso 1.0 S
