# AFLOW.org Repositories
# Cd1Ge1Sr1   [ORC,ORC,oP12] (STD_PRIM doi
data_Cd1Ge1Sr1
_pd_phase_name Cd1Ge1Sr1
_cell_length_a  4.6519561503
_cell_length_b  7.8628225468
_cell_length_c  8.6406791964
_cell_angle_alpha  90.0000000000
_cell_angle_beta  90.0000000000
_cell_angle_gamma  90.0000000000
_symmetry_space_group_name_H-M  'P1'
_symmetry_Int_Tables_Number  1
loop_
_symmetry_equiv_pos_site_id
_symmetry_equiv_pos_as_xyz
  1  x,y,z
loop_
 _atom_site_label
 _atom_site_occupancy
 _atom_site_fract_x
 _atom_site_fract_y
 _atom_site_fract_z
 _atom_site_thermal_displace_type
 _atom_site_B_iso_or_equiv
 _atom_site_type_symbol
Cd1 1.0000000000 0.2500000000 0.6517035056 0.9342105960  Biso 1.0 Cd
Cd2 1.0000000000 0.7500000000 0.8482964944 0.4342105960  Biso 1.0 Cd
Cd3 1.0000000000 0.7500000000 0.3482964944 0.0657894040  Biso 1.0 Cd
Cd4 1.0000000000 0.2500000000 0.1517035056 0.5657894040  Biso 1.0 Cd
Ge5 1.0000000000 0.2500000000 0.2742083378 0.8887005522  Biso 1.0 Ge
Ge6 1.0000000000 0.7500000000 0.2257916622 0.3887005522  Biso 1.0 Ge
Ge7 1.0000000000 0.7500000000 0.7257916622 0.1112994478  Biso 1.0 Ge
Ge8 1.0000000000 0.2500000000 0.7742083378 0.6112994478  Biso 1.0 Ge
Sr9 1.0000000000 0.2500000000 0.5146332918 0.3131381665  Biso 1.0 Sr
Sr10 1.0000000000 0.7500000000 0.9853667082 0.8131381665  Biso 1.0 Sr
Sr11 1.0000000000 0.7500000000 0.4853667082 0.6868618335  Biso 1.0 Sr
Sr12 1.0000000000 0.2500000000 0.0146332918 0.1868618335  Biso 1.0 Sr
