# AFLOW.org Repositories
# Cd1I2   [HEX,HEX,hP9] (STD_PRIM doi:10.1
data_Cd1I2
_pd_phase_name Cd1I2
_cell_length_a  4.3107558680
_cell_length_b  4.3107558680
_cell_length_c  21.7068647659
_cell_angle_alpha  90.0000000000
_cell_angle_beta  90.0000000000
_cell_angle_gamma  120.0000000000
_symmetry_space_group_name_H-M  'P1'
_symmetry_Int_Tables_Number  1
loop_
_symmetry_equiv_pos_site_id
_symmetry_equiv_pos_as_xyz
  1  x,y,z
loop_
 _atom_site_label
 _atom_site_occupancy
 _atom_site_fract_x
 _atom_site_fract_y
 _atom_site_fract_z
 _atom_site_thermal_displace_type
 _atom_site_B_iso_or_equiv
 _atom_site_type_symbol
Cd1 1.0000000000 0.3333445032 0.6666890063 0.0833206494  Biso 1.0 Cd
Cd2 1.0000000000 0.0000000000 0.0000000000 0.4167121496  Biso 1.0 Cd
Cd3 1.0000000000 0.0000000000 0.0000000000 0.7499882056  Biso 1.0 Cd
I4 1.0000000000 0.0000000000 0.0000000000 0.0036785858  Biso 1.0 I
I5 1.0000000000 0.6666731349 0.3333462698 0.1629932793  Biso 1.0 I
I6 1.0000000000 0.3333212153 0.6666424306 0.3370136464  Biso 1.0 I
I7 1.0000000000 0.6666783569 0.3333567137 0.4963246153  Biso 1.0 I
I8 1.0000000000 0.3333210914 0.6666421827 0.6703221805  Biso 1.0 I
I9 1.0000000000 0.6666817508 0.3333635016 0.8296466881  Biso 1.0 I
