# AFLOW.org Repositories
# Cd1Rh1Tb4   [FCC,FCC,cF96] (STD_PRIM doi
data_Cd1Rh1Tb4
_pd_phase_name Cd1Rh1Tb4
_cell_length_a  9.6317581304
_cell_length_b  9.6317581304
_cell_length_c  9.6317581304
_cell_angle_alpha  60.0000000000
_cell_angle_beta  60.0000000000
_cell_angle_gamma  60.0000000000
_symmetry_space_group_name_H-M  'P1'
_symmetry_Int_Tables_Number  1
loop_
_symmetry_equiv_pos_site_id
_symmetry_equiv_pos_as_xyz
  1  x,y,z
loop_
 _atom_site_label
 _atom_site_occupancy
 _atom_site_fract_x
 _atom_site_fract_y
 _atom_site_fract_z
 _atom_site_thermal_displace_type
 _atom_site_B_iso_or_equiv
 _atom_site_type_symbol
Cd1 1.0000000000 0.5808189301 0.5808189301 0.5808189301  Biso 1.0 Cd
Cd2 1.0000000000 0.2575432098 0.5808189301 0.5808189301  Biso 1.0 Cd
Cd3 1.0000000000 0.5808189301 0.5808189301 0.2575432098  Biso 1.0 Cd
Cd4 1.0000000000 0.5808189301 0.2575432098 0.5808189301  Biso 1.0 Cd
Rh5 1.0000000000 0.1423762417 0.1423762417 0.1423762417  Biso 1.0 Rh
Rh6 1.0000000000 0.5728712749 0.1423762417 0.1423762417  Biso 1.0 Rh
Rh7 1.0000000000 0.1423762417 0.1423762417 0.5728712749  Biso 1.0 Rh
Rh8 1.0000000000 0.1423762417 0.5728712749 0.1423762417  Biso 1.0 Rh
Tb9 1.0000000000 0.5644403949 0.9355596051 0.5644403949  Biso 1.0 Tb
Tb10 1.0000000000 0.9355596051 0.5644403949 0.9355596051  Biso 1.0 Tb
Tb11 1.0000000000 0.5644403949 0.5644403949 0.9355596051  Biso 1.0 Tb
Tb12 1.0000000000 0.9355596051 0.9355596051 0.5644403949  Biso 1.0 Tb
Tb13 1.0000000000 0.9355596051 0.5644403949 0.5644403949  Biso 1.0 Tb
Tb14 1.0000000000 0.5644403949 0.9355596051 0.9355596051  Biso 1.0 Tb
Tb15 1.0000000000 0.1890468973 0.8109531027 0.1890468973  Biso 1.0 Tb
Tb16 1.0000000000 0.8109531027 0.1890468973 0.8109531027  Biso 1.0 Tb
Tb17 1.0000000000 0.1890468973 0.1890468973 0.8109531027  Biso 1.0 Tb
Tb18 1.0000000000 0.8109531027 0.8109531027 0.1890468973  Biso 1.0 Tb
Tb19 1.0000000000 0.8109531027 0.1890468973 0.1890468973  Biso 1.0 Tb
Tb20 1.0000000000 0.1890468973 0.8109531027 0.8109531027  Biso 1.0 Tb
Tb21 1.0000000000 0.3488953522 0.3488953522 0.3488953522  Biso 1.0 Tb
Tb22 1.0000000000 0.9533139433 0.3488953522 0.3488953522  Biso 1.0 Tb
Tb23 1.0000000000 0.3488953522 0.3488953522 0.9533139433  Biso 1.0 Tb
Tb24 1.0000000000 0.3488953522 0.9533139433 0.3488953522  Biso 1.0 Tb
