# AFLOW.org Repositories
# Cd1Se4Y2   [FCC,FCC,cF56] (STD_PRIM doi:
data_Cd1Se4Y2
_pd_phase_name Cd1Se4Y2
_cell_length_a  8.3503493193
_cell_length_b  8.3503493193
_cell_length_c  8.3503493193
_cell_angle_alpha  60.0000000000
_cell_angle_beta  60.0000000000
_cell_angle_gamma  60.0000000000
_symmetry_space_group_name_H-M  'P1'
_symmetry_Int_Tables_Number  1
loop_
_symmetry_equiv_pos_site_id
_symmetry_equiv_pos_as_xyz
  1  x,y,z
loop_
 _atom_site_label
 _atom_site_occupancy
 _atom_site_fract_x
 _atom_site_fract_y
 _atom_site_fract_z
 _atom_site_thermal_displace_type
 _atom_site_B_iso_or_equiv
 _atom_site_type_symbol
Cd1 1.0000000000 0.3750000000 0.3750000000 0.3750000000  Biso 1.0 Cd
Cd2 1.0000000000 0.6250000000 0.6250000000 0.6250000000  Biso 1.0 Cd
Se3 1.0000000000 0.2431522922 0.2431522922 0.2431522922  Biso 1.0 Se
Se4 1.0000000000 0.2431522922 0.7705431234 0.2431522922  Biso 1.0 Se
Se5 1.0000000000 0.7705431234 0.2431522922 0.2431522922  Biso 1.0 Se
Se6 1.0000000000 0.2431522922 0.2431522922 0.7705431234  Biso 1.0 Se
Se7 1.0000000000 0.7568477078 0.2294568766 0.7568477078  Biso 1.0 Se
Se8 1.0000000000 0.7568477078 0.7568477078 0.7568477078  Biso 1.0 Se
Se9 1.0000000000 0.2294568766 0.7568477078 0.7568477078  Biso 1.0 Se
Se10 1.0000000000 0.7568477078 0.7568477078 0.2294568766  Biso 1.0 Se
Y11 1.0000000000 0.0000000000 0.0000000000 0.0000000000  Biso 1.0 Y
Y12 1.0000000000 0.0000000000 0.5000000000 0.0000000000  Biso 1.0 Y
Y13 1.0000000000 0.5000000000 0.0000000000 0.0000000000  Biso 1.0 Y
Y14 1.0000000000 0.0000000000 0.0000000000 0.5000000000  Biso 1.0 Y
