# AFLOW.org Repositories
# Cd1S4Sc2   [FCC,FCC,cF56] (STD_PRIM doi:
data_Cd1S4Sc2
_pd_phase_name Cd1S4Sc2
_cell_length_a  7.7117346527
_cell_length_b  7.7117346527
_cell_length_c  7.7117346527
_cell_angle_alpha  60.0000000000
_cell_angle_beta  60.0000000000
_cell_angle_gamma  60.0000000000
_symmetry_space_group_name_H-M  'P1'
_symmetry_Int_Tables_Number  1
loop_
_symmetry_equiv_pos_site_id
_symmetry_equiv_pos_as_xyz
  1  x,y,z
loop_
 _atom_site_label
 _atom_site_occupancy
 _atom_site_fract_x
 _atom_site_fract_y
 _atom_site_fract_z
 _atom_site_thermal_displace_type
 _atom_site_B_iso_or_equiv
 _atom_site_type_symbol
Cd1 1.0000000000 0.3750000000 0.3750000000 0.8750000000  Biso 1.0 Cd
Cd2 1.0000000000 0.6250000000 0.6250000000 0.1250000000  Biso 1.0 Cd
S3 1.0000000000 0.2399360639 0.2399360639 0.2801918084  Biso 1.0 S
S4 1.0000000000 0.2399360639 0.7801918084 0.7399360639  Biso 1.0 S
S5 1.0000000000 0.2399360639 0.2399360639 0.7399360639  Biso 1.0 S
S6 1.0000000000 0.7801918084 0.2399360639 0.7399360639  Biso 1.0 S
S7 1.0000000000 0.7600639361 0.2198081916 0.2600639361  Biso 1.0 S
S8 1.0000000000 0.7600639361 0.7600639361 0.7198081916  Biso 1.0 S
S9 1.0000000000 0.7600639361 0.7600639361 0.2600639361  Biso 1.0 S
S10 1.0000000000 0.2198081916 0.7600639361 0.2600639361  Biso 1.0 S
Sc11 1.0000000000 0.0000000000 0.0000000000 0.0000000000  Biso 1.0 Sc
Sc12 1.0000000000 0.0000000000 0.5000000000 0.5000000000  Biso 1.0 Sc
Sc13 1.0000000000 0.0000000000 0.0000000000 0.5000000000  Biso 1.0 Sc
Sc14 1.0000000000 0.5000000000 0.0000000000 0.5000000000  Biso 1.0 Sc
