# AFLOW.org Repositories
# Cd3Ho1   [ORCC,ORCC,oS16] (STD_PRIM doi:
data_Cd3Ho1
_pd_phase_name Cd3Ho1
_cell_length_a  6.4955059836
_cell_length_b  6.4955059836
_cell_length_c  4.8611685586
_cell_angle_alpha  90.0000000000
_cell_angle_beta  90.0000000000
_cell_angle_gamma  113.0092174710
_symmetry_space_group_name_H-M  'P1'
_symmetry_Int_Tables_Number  1
loop_
_symmetry_equiv_pos_site_id
_symmetry_equiv_pos_as_xyz
  1  x,y,z
loop_
 _atom_site_label
 _atom_site_occupancy
 _atom_site_fract_x
 _atom_site_fract_y
 _atom_site_fract_z
 _atom_site_thermal_displace_type
 _atom_site_B_iso_or_equiv
 _atom_site_type_symbol
Cd1 1.0000000000 0.1761708721 0.8238291279 0.2500000000  Biso 1.0 Cd
Cd2 1.0000000000 0.8238291279 0.1761708721 0.7500000000  Biso 1.0 Cd
Cd3 1.0000000000 0.1198637686 0.3104154390 0.2500000000  Biso 1.0 Cd
Cd4 1.0000000000 0.8801362314 0.6895845610 0.7500000000  Biso 1.0 Cd
Cd5 1.0000000000 0.6895845610 0.8801362314 0.2500000000  Biso 1.0 Cd
Cd6 1.0000000000 0.3104154390 0.1198637686 0.7500000000  Biso 1.0 Cd
Ho7 1.0000000000 0.6328377601 0.3671622399 0.2500000000  Biso 1.0 Ho
Ho8 1.0000000000 0.3671622399 0.6328377601 0.7500000000  Biso 1.0 Ho
