# AFLOW.org Repositories
# Cd3P2   [BCC,BCC,cI80] (STD_PRIM doi:10.
data_Cd3P2
_pd_phase_name Cd3P2
_cell_length_a  10.7814372088
_cell_length_b  10.7814372088
_cell_length_c  10.7814372088
_cell_angle_alpha  109.4712206345
_cell_angle_beta  109.4712206345
_cell_angle_gamma  109.4712206345
_symmetry_space_group_name_H-M  'P1'
_symmetry_Int_Tables_Number  1
loop_
_symmetry_equiv_pos_site_id
_symmetry_equiv_pos_as_xyz
  1  x,y,z
loop_
 _atom_site_label
 _atom_site_occupancy
 _atom_site_fract_x
 _atom_site_fract_y
 _atom_site_fract_z
 _atom_site_thermal_displace_type
 _atom_site_B_iso_or_equiv
 _atom_site_type_symbol
Cd1 1.0000000000 0.0434803321 0.7751964741 0.0245973853  Biso 1.0 Cd
Cd2 1.0000000000 0.7505990888 0.5188829467 0.4754026147  Biso 1.0 Cd
Cd3 1.0000000000 0.4565196679 0.9811170533 0.2317161420  Biso 1.0 Cd
Cd4 1.0000000000 0.7494009112 0.7248035259 0.2682838580  Biso 1.0 Cd
Cd5 1.0000000000 0.0188829467 0.9754026147 0.7505990888  Biso 1.0 Cd
Cd6 1.0000000000 0.2751964741 0.5245973853 0.0434803321  Biso 1.0 Cd
Cd7 1.0000000000 0.2248035259 0.7682838580 0.7494009112  Biso 1.0 Cd
Cd8 1.0000000000 0.4811170533 0.7317161420 0.4565196679  Biso 1.0 Cd
Cd9 1.0000000000 0.2682838580 0.2494009112 0.2248035259  Biso 1.0 Cd
Cd10 1.0000000000 0.2317161420 0.9565196679 0.4811170533  Biso 1.0 Cd
Cd11 1.0000000000 0.4754026147 0.2505990888 0.0188829467  Biso 1.0 Cd
Cd12 1.0000000000 0.0245973853 0.5434803321 0.2751964741  Biso 1.0 Cd
Cd13 1.0000000000 0.9565196679 0.2248035259 0.9754026147  Biso 1.0 Cd
Cd14 1.0000000000 0.2494009112 0.4811170533 0.5245973853  Biso 1.0 Cd
Cd15 1.0000000000 0.5434803321 0.0188829467 0.7682838580  Biso 1.0 Cd
Cd16 1.0000000000 0.2505990888 0.2751964741 0.7317161420  Biso 1.0 Cd
Cd17 1.0000000000 0.9811170533 0.0245973853 0.2494009112  Biso 1.0 Cd
Cd18 1.0000000000 0.7248035259 0.4754026147 0.9565196679  Biso 1.0 Cd
Cd19 1.0000000000 0.7751964741 0.2317161420 0.2505990888  Biso 1.0 Cd
Cd20 1.0000000000 0.5188829467 0.2682838580 0.5434803321  Biso 1.0 Cd
Cd21 1.0000000000 0.7317161420 0.7505990888 0.7751964741  Biso 1.0 Cd
Cd22 1.0000000000 0.7682838580 0.0434803321 0.5188829467  Biso 1.0 Cd
Cd23 1.0000000000 0.5245973853 0.7494009112 0.9811170533  Biso 1.0 Cd
Cd24 1.0000000000 0.9754026147 0.4565196679 0.7248035259  Biso 1.0 Cd
P25 1.0000000000 0.0000000000 0.0000000000 0.0000000000  Biso 1.0 P
P26 1.0000000000 0.0000000000 0.5000000000 0.5000000000  Biso 1.0 P
P27 1.0000000000 0.5000000000 0.0000000000 0.5000000000  Biso 1.0 P
P28 1.0000000000 0.5000000000 0.5000000000 0.0000000000  Biso 1.0 P
P29 1.0000000000 0.5171826051 0.2500000000 0.2671826051  Biso 1.0 P
P30 1.0000000000 0.9828173949 0.7500000000 0.2328173949  Biso 1.0 P
P31 1.0000000000 0.2500000000 0.7328173949 0.9828173949  Biso 1.0 P
P32 1.0000000000 0.7500000000 0.7671826051 0.5171826051  Biso 1.0 P
P33 1.0000000000 0.2671826051 0.0171826051 0.7500000000  Biso 1.0 P
P34 1.0000000000 0.2328173949 0.4828173949 0.2500000000  Biso 1.0 P
P35 1.0000000000 0.4828173949 0.7500000000 0.7328173949  Biso 1.0 P
P36 1.0000000000 0.0171826051 0.2500000000 0.7671826051  Biso 1.0 P
P37 1.0000000000 0.7500000000 0.2671826051 0.0171826051  Biso 1.0 P
P38 1.0000000000 0.2500000000 0.2328173949 0.4828173949  Biso 1.0 P
P39 1.0000000000 0.7328173949 0.9828173949 0.2500000000  Biso 1.0 P
P40 1.0000000000 0.7671826051 0.5171826051 0.7500000000  Biso 1.0 P
