# AFLOW.org Repositories
# Cd3Sc1   [HEX,HEX,hP8] (STD_PRIM doi:10.
data_Cd3Sc1
_pd_phase_name Cd3Sc1
_cell_length_a  6.4174429251
_cell_length_b  6.4174429251
_cell_length_c  4.9288791327
_cell_angle_alpha  90.0000000000
_cell_angle_beta  90.0000000000
_cell_angle_gamma  120.0000000000
_symmetry_space_group_name_H-M  'P1'
_symmetry_Int_Tables_Number  1
loop_
_symmetry_equiv_pos_site_id
_symmetry_equiv_pos_as_xyz
  1  x,y,z
loop_
 _atom_site_label
 _atom_site_occupancy
 _atom_site_fract_x
 _atom_site_fract_y
 _atom_site_fract_z
 _atom_site_thermal_displace_type
 _atom_site_B_iso_or_equiv
 _atom_site_type_symbol
Cd1 1.0000000000 0.1663216674 0.3326247498 0.2500000000  Biso 1.0 Cd
Cd2 1.0000000000 0.6673752502 0.8336783326 0.2500000000  Biso 1.0 Cd
Cd3 1.0000000000 0.1663076843 0.8336923157 0.2500000000  Biso 1.0 Cd
Cd4 1.0000000000 0.8336783326 0.6673752502 0.7500000000  Biso 1.0 Cd
Cd5 1.0000000000 0.3326247498 0.1663216674 0.7500000000  Biso 1.0 Cd
Cd6 1.0000000000 0.8336923157 0.1663076843 0.7500000000  Biso 1.0 Cd
Sc7 1.0000000000 0.6666885455 0.3333114545 0.2500000000  Biso 1.0 Sc
Sc8 1.0000000000 0.3333114545 0.6666885455 0.7500000000  Biso 1.0 Sc
