# AFLOW.org Repositories
# Ce2Pd21Si6   [FCC,FCC,cF116] (STD_PRIM d
data_Ce2Pd21Si6
_pd_phase_name Ce2Pd21Si6
_cell_length_a  8.6464277351
_cell_length_b  8.6464277351
_cell_length_c  8.6464277351
_cell_angle_alpha  60.0000000000
_cell_angle_beta  60.0000000000
_cell_angle_gamma  60.0000000000
_symmetry_space_group_name_H-M  'P1'
_symmetry_Int_Tables_Number  1
loop_
_symmetry_equiv_pos_site_id
_symmetry_equiv_pos_as_xyz
  1  x,y,z
loop_
 _atom_site_label
 _atom_site_occupancy
 _atom_site_fract_x
 _atom_site_fract_y
 _atom_site_fract_z
 _atom_site_thermal_displace_type
 _atom_site_B_iso_or_equiv
 _atom_site_type_symbol
Ce1 1.0000000000 0.2500000000 0.2500000000 0.2500000000  Biso 1.0 Ce
Ce2 1.0000000000 0.7500000000 0.7500000000 0.7500000000  Biso 1.0 Ce
Pd3 1.0000000000 0.0000000000 0.0000000000 0.0000000000  Biso 1.0 Pd
Pd4 1.0000000000 0.8472647485 0.3842450838 0.3842450838  Biso 1.0 Pd
Pd5 1.0000000000 0.3842450838 0.3842450838 0.3842450838  Biso 1.0 Pd
Pd6 1.0000000000 0.3842450838 0.8472647485 0.3842450838  Biso 1.0 Pd
Pd7 1.0000000000 0.3842450838 0.3842450838 0.8472647485  Biso 1.0 Pd
Pd8 1.0000000000 0.6157549162 0.6157549162 0.6157549162  Biso 1.0 Pd
Pd9 1.0000000000 0.1527352515 0.6157549162 0.6157549162  Biso 1.0 Pd
Pd10 1.0000000000 0.6157549162 0.1527352515 0.6157549162  Biso 1.0 Pd
Pd11 1.0000000000 0.6157549162 0.6157549162 0.1527352515  Biso 1.0 Pd
Pd12 1.0000000000 0.6544426777 0.0000000000 0.3455573223  Biso 1.0 Pd
Pd13 1.0000000000 0.0000000000 0.3455573223 0.0000000000  Biso 1.0 Pd
Pd14 1.0000000000 0.0000000000 0.6544426777 0.0000000000  Biso 1.0 Pd
Pd15 1.0000000000 0.3455573223 0.0000000000 0.6544426777  Biso 1.0 Pd
Pd16 1.0000000000 0.6544426777 0.3455573223 0.0000000000  Biso 1.0 Pd
Pd17 1.0000000000 0.0000000000 0.0000000000 0.6544426777  Biso 1.0 Pd
Pd18 1.0000000000 0.0000000000 0.0000000000 0.3455573223  Biso 1.0 Pd
Pd19 1.0000000000 0.3455573223 0.6544426777 0.0000000000  Biso 1.0 Pd
Pd20 1.0000000000 0.6544426777 0.0000000000 0.0000000000  Biso 1.0 Pd
Pd21 1.0000000000 0.0000000000 0.6544426777 0.3455573223  Biso 1.0 Pd
Pd22 1.0000000000 0.0000000000 0.3455573223 0.6544426777  Biso 1.0 Pd
Pd23 1.0000000000 0.3455573223 0.0000000000 0.0000000000  Biso 1.0 Pd
Si24 1.0000000000 0.7380107026 0.2619892974 0.7380107026  Biso 1.0 Si
Si25 1.0000000000 0.2619892974 0.7380107026 0.2619892974  Biso 1.0 Si
Si26 1.0000000000 0.7380107026 0.7380107026 0.2619892974  Biso 1.0 Si
Si27 1.0000000000 0.2619892974 0.2619892974 0.7380107026  Biso 1.0 Si
Si28 1.0000000000 0.7380107026 0.2619892974 0.2619892974  Biso 1.0 Si
Si29 1.0000000000 0.2619892974 0.7380107026 0.7380107026  Biso 1.0 Si
