# AFLOW.org Repositories
# Ce4Rh12Si1   [BCC,BCC,cI34] (STD_PRIM do
data_Ce4Rh12Si1
_pd_phase_name Ce4Rh12Si1
_cell_length_a  7.1994960343
_cell_length_b  7.1994960343
_cell_length_c  7.1994960343
_cell_angle_alpha  109.4712206345
_cell_angle_beta  109.4712206345
_cell_angle_gamma  109.4712206345
_symmetry_space_group_name_H-M  'P1'
_symmetry_Int_Tables_Number  1
loop_
_symmetry_equiv_pos_site_id
_symmetry_equiv_pos_as_xyz
  1  x,y,z
loop_
 _atom_site_label
 _atom_site_occupancy
 _atom_site_fract_x
 _atom_site_fract_y
 _atom_site_fract_z
 _atom_site_thermal_displace_type
 _atom_site_B_iso_or_equiv
 _atom_site_type_symbol
Ce1 1.0000000000 0.5000000000 0.5000000000 0.5000000000  Biso 1.0 Ce
Ce2 1.0000000000 0.0000000000 0.0000000000 0.5000000000  Biso 1.0 Ce
Ce3 1.0000000000 0.0000000000 0.5000000000 0.0000000000  Biso 1.0 Ce
Ce4 1.0000000000 0.5000000000 0.0000000000 0.0000000000  Biso 1.0 Ce
Rh5 1.0000000000 0.5000000000 0.7500000000 0.2500000000  Biso 1.0 Rh
Rh6 1.0000000000 0.5000000000 0.2500000000 0.7500000000  Biso 1.0 Rh
Rh7 1.0000000000 0.2500000000 0.5000000000 0.7500000000  Biso 1.0 Rh
Rh8 1.0000000000 0.7500000000 0.5000000000 0.2500000000  Biso 1.0 Rh
Rh9 1.0000000000 0.7500000000 0.2500000000 0.5000000000  Biso 1.0 Rh
Rh10 1.0000000000 0.2500000000 0.7500000000 0.5000000000  Biso 1.0 Rh
Rh11 1.0000000000 0.0000000000 0.2758622032 0.2758622032  Biso 1.0 Rh
Rh12 1.0000000000 0.0000000000 0.7241377968 0.7241377968  Biso 1.0 Rh
Rh13 1.0000000000 0.2758622032 0.0000000000 0.2758622032  Biso 1.0 Rh
Rh14 1.0000000000 0.7241377968 0.0000000000 0.7241377968  Biso 1.0 Rh
Rh15 1.0000000000 0.2758622032 0.2758622032 0.0000000000  Biso 1.0 Rh
Rh16 1.0000000000 0.7241377968 0.7241377968 0.0000000000  Biso 1.0 Rh
Si17 1.0000000000 0.0000000000 0.0000000000 0.0000000000  Biso 1.0 Si
