# AFLOW.org Repositories
# Cl1La1Se1   [ORC,ORC,oP12] (STD_PRIM doi
data_Cl1La1Se1
_pd_phase_name Cl1La1Se1
_cell_length_a  4.3865815709
_cell_length_b  7.7084989051
_cell_length_c  9.2549643383
_cell_angle_alpha  90.0000000000
_cell_angle_beta  90.0000000000
_cell_angle_gamma  90.0000000000
_symmetry_space_group_name_H-M  'P1'
_symmetry_Int_Tables_Number  1
loop_
_symmetry_equiv_pos_site_id
_symmetry_equiv_pos_as_xyz
  1  x,y,z
loop_
 _atom_site_label
 _atom_site_occupancy
 _atom_site_fract_x
 _atom_site_fract_y
 _atom_site_fract_z
 _atom_site_thermal_displace_type
 _atom_site_B_iso_or_equiv
 _atom_site_type_symbol
Cl1 1.0000000000 0.2500000000 0.8652683911 0.9399117953  Biso 1.0 Cl
Cl2 1.0000000000 0.7500000000 0.6347316089 0.4399117953  Biso 1.0 Cl
Cl3 1.0000000000 0.7500000000 0.1347316089 0.0600882047  Biso 1.0 Cl
Cl4 1.0000000000 0.2500000000 0.3652683911 0.5600882047  Biso 1.0 Cl
La5 1.0000000000 0.2500000000 0.2589081264 0.8678439243  Biso 1.0 La
La6 1.0000000000 0.7500000000 0.2410918736 0.3678439243  Biso 1.0 La
La7 1.0000000000 0.7500000000 0.7410918736 0.1321560757  Biso 1.0 La
La8 1.0000000000 0.2500000000 0.7589081264 0.6321560757  Biso 1.0 La
Se9 1.0000000000 0.2500000000 0.4579492299 0.1710490964  Biso 1.0 Se
Se10 1.0000000000 0.7500000000 0.0420507701 0.6710490964  Biso 1.0 Se
Se11 1.0000000000 0.7500000000 0.5420507701 0.8289509036  Biso 1.0 Se
Se12 1.0000000000 0.2500000000 0.9579492299 0.3289509036  Biso 1.0 Se
