# AFLOW.org Repositories
# Cl1Na1O3   [CUB,CUB,cP20] (STD_PRIM doi:
data_Cl1Na1O3
_pd_phase_name Cl1Na1O3
_cell_length_a  6.6828157453
_cell_length_b  6.6828157453
_cell_length_c  6.6828157453
_cell_angle_alpha  90.0000000000
_cell_angle_beta  90.0000000000
_cell_angle_gamma  90.0000000000
_symmetry_space_group_name_H-M  'P1'
_symmetry_Int_Tables_Number  1
loop_
_symmetry_equiv_pos_site_id
_symmetry_equiv_pos_as_xyz
  1  x,y,z
loop_
 _atom_site_label
 _atom_site_occupancy
 _atom_site_fract_x
 _atom_site_fract_y
 _atom_site_fract_z
 _atom_site_thermal_displace_type
 _atom_site_B_iso_or_equiv
 _atom_site_type_symbol
Cl1 1.0000000000 0.5816584100 0.5816584100 0.4183415900  Biso 1.0 Cl
Cl2 1.0000000000 0.9183415900 0.4183415900 0.9183415900  Biso 1.0 Cl
Cl3 1.0000000000 0.4183415900 0.0816584100 0.0816584100  Biso 1.0 Cl
Cl4 1.0000000000 0.0816584100 0.9183415900 0.5816584100  Biso 1.0 Cl
Na5 1.0000000000 0.9319695090 0.9319695090 0.0680304910  Biso 1.0 Na
Na6 1.0000000000 0.5680304910 0.0680304910 0.5680304910  Biso 1.0 Na
Na7 1.0000000000 0.0680304910 0.4319695090 0.4319695090  Biso 1.0 Na
Na8 1.0000000000 0.4319695090 0.5680304910 0.9319695090  Biso 1.0 Na
O9 1.0000000000 0.6960111820 0.4067016310 0.5039899068  Biso 1.0 O
O10 1.0000000000 0.8039888180 0.5932983690 0.0039899068  Biso 1.0 O
O11 1.0000000000 0.3039888180 0.9067016310 0.9960100932  Biso 1.0 O
O12 1.0000000000 0.1960111820 0.0932983690 0.4960100932  Biso 1.0 O
O13 1.0000000000 0.4960100932 0.6960111820 0.5932983690  Biso 1.0 O
O14 1.0000000000 0.9960100932 0.8039888180 0.4067016310  Biso 1.0 O
O15 1.0000000000 0.0039899068 0.3039888180 0.0932983690  Biso 1.0 O
O16 1.0000000000 0.5039899068 0.1960111820 0.9067016310  Biso 1.0 O
O17 1.0000000000 0.4067016310 0.4960100932 0.3039888180  Biso 1.0 O
O18 1.0000000000 0.5932983690 0.9960100932 0.1960111820  Biso 1.0 O
O19 1.0000000000 0.9067016310 0.0039899068 0.6960111820  Biso 1.0 O
O20 1.0000000000 0.0932983690 0.5039899068 0.8039888180  Biso 1.0 O
