# AFLOW.org Repositories
# Cl2H12Sr7   [HEX,HEX,hP21] (STD_PRIM doi
data_Cl2H12Sr7
_pd_phase_name Cl2H12Sr7
_cell_length_a  9.9720429618
_cell_length_b  9.9720429618
_cell_length_c  3.9442295164
_cell_angle_alpha  90.0000000000
_cell_angle_beta  90.0000000000
_cell_angle_gamma  120.0000000000
_symmetry_space_group_name_H-M  'P1'
_symmetry_Int_Tables_Number  1
loop_
_symmetry_equiv_pos_site_id
_symmetry_equiv_pos_as_xyz
  1  x,y,z
loop_
 _atom_site_label
 _atom_site_occupancy
 _atom_site_fract_x
 _atom_site_fract_y
 _atom_site_fract_z
 _atom_site_thermal_displace_type
 _atom_site_B_iso_or_equiv
 _atom_site_type_symbol
Cl1 1.0000000000 0.0000000000 0.0000000000 0.0000000000  Biso 1.0 Cl
Cl2 1.0000000000 0.3333366291 0.6666684686 0.5000000000  Biso 1.0 Cl
H3 1.0000000000 0.0912287731 0.6978626736 0.0000000000  Biso 1.0 H
H4 1.0000000000 0.3021391078 0.3933676926 0.0000000000  Biso 1.0 H
H5 1.0000000000 0.6066302644 0.9087699545 0.0000000000  Biso 1.0 H
H6 1.0000000000 0.7861368970 0.6098254228 0.0000000000  Biso 1.0 H
H7 1.0000000000 0.3901759156 0.1763120877 0.0000000000  Biso 1.0 H
H8 1.0000000000 0.8236889626 0.2138626795 0.0000000000  Biso 1.0 H
H9 1.0000000000 0.2271712248 0.9427066262 0.5000000000  Biso 1.0 H
H10 1.0000000000 0.0572946345 0.2844641850 0.5000000000  Biso 1.0 H
H11 1.0000000000 0.7155343377 0.7728292664 0.5000000000  Biso 1.0 H
H12 1.0000000000 0.8820240131 0.4447814798 0.5000000000  Biso 1.0 H
H13 1.0000000000 0.5552184240 0.4372433730 0.5000000000  Biso 1.0 H
H14 1.0000000000 0.5627574518 0.1179753168 0.5000000000  Biso 1.0 H
Sr15 1.0000000000 0.6666647677 0.3333328575 0.0000000000  Biso 1.0 Sr
Sr16 1.0000000000 0.3619300331 0.9215862765 0.0000000000  Biso 1.0 Sr
Sr17 1.0000000000 0.0784110192 0.4403407543 0.0000000000  Biso 1.0 Sr
Sr18 1.0000000000 0.5596563210 0.6380688419 0.0000000000  Biso 1.0 Sr
Sr19 1.0000000000 0.9491726519 0.7319998454 0.5000000000  Biso 1.0 Sr
Sr20 1.0000000000 0.2680020728 0.2171756877 0.5000000000  Biso 1.0 Sr
Sr21 1.0000000000 0.7828262693 0.0508264840 0.5000000000  Biso 1.0 Sr
