# AFLOW.org Repositories
# Cl2Hg2   [BCT,BCT2,tI8] (STD_PRIM doi:10
data_Cl2Hg2
_pd_phase_name Cl2Hg2
_cell_length_a  6.4640516866
_cell_length_b  6.4640516866
_cell_length_c  6.4640516866
_cell_angle_alpha  137.3979059809
_cell_angle_beta  137.3979059809
_cell_angle_gamma  61.8263962478
_symmetry_space_group_name_H-M  'P1'
_symmetry_Int_Tables_Number  1
loop_
_symmetry_equiv_pos_site_id
_symmetry_equiv_pos_as_xyz
  1  x,y,z
loop_
 _atom_site_label
 _atom_site_occupancy
 _atom_site_fract_x
 _atom_site_fract_y
 _atom_site_fract_z
 _atom_site_thermal_displace_type
 _atom_site_B_iso_or_equiv
 _atom_site_type_symbol
Cl1 1.0000000000 0.6609014010 0.6609014010 0.0000000000  Biso 1.0 Cl
Cl2 1.0000000000 0.3390985990 0.3390985990 0.0000000000  Biso 1.0 Cl
Hg3 1.0000000000 0.8821994508 0.8821994508 0.0000000000  Biso 1.0 Hg
Hg4 1.0000000000 0.1178005492 0.1178005492 0.0000000000  Biso 1.0 Hg
