# AFLOW.org Repositories
# Cl2Mg1   [ORCC,ORCC,oS12] (STD_PRIM doi:
data_Cl2Mg1
_pd_phase_name Cl2Mg1
_cell_length_a  4.3588513283
_cell_length_b  4.3588513283
_cell_length_c  9.5923216893
_cell_angle_alpha  90.0000000000
_cell_angle_beta  90.0000000000
_cell_angle_gamma  119.0686907640
_symmetry_space_group_name_H-M  'P1'
_symmetry_Int_Tables_Number  1
loop_
_symmetry_equiv_pos_site_id
_symmetry_equiv_pos_as_xyz
  1  x,y,z
loop_
 _atom_site_label
 _atom_site_occupancy
 _atom_site_fract_x
 _atom_site_fract_y
 _atom_site_fract_z
 _atom_site_thermal_displace_type
 _atom_site_B_iso_or_equiv
 _atom_site_type_symbol
Cl1 1.0000000000 0.6094745260 0.2869807294 0.7500000000  Biso 1.0 Cl
Cl2 1.0000000000 0.2869807294 0.6094745260 0.2500000000  Biso 1.0 Cl
Cl3 1.0000000000 0.9535196280 0.9535196280 0.0000000000  Biso 1.0 Cl
Cl4 1.0000000000 0.9535196280 0.9535196280 0.5000000000  Biso 1.0 Cl
Mg5 1.0000000000 0.9425029176 0.9500025709 0.7500000000  Biso 1.0 Mg
Mg6 1.0000000000 0.9500025709 0.9425029176 0.2500000000  Biso 1.0 Mg
