# AFLOW.org Repositories
# Cl2O1Pd2   [BCT,BCT2,tI20] (STD_PRIM doi
data_Cl2O1Pd2
_pd_phase_name Cl2O1Pd2
_cell_length_a  6.8289193495
_cell_length_b  6.8289193495
_cell_length_c  6.8289193495
_cell_angle_alpha  123.5410750175
_cell_angle_beta  123.5410750175
_cell_angle_gamma  83.9688405935
_symmetry_space_group_name_H-M  'P1'
_symmetry_Int_Tables_Number  1
loop_
_symmetry_equiv_pos_site_id
_symmetry_equiv_pos_as_xyz
  1  x,y,z
loop_
 _atom_site_label
 _atom_site_occupancy
 _atom_site_fract_x
 _atom_site_fract_y
 _atom_site_fract_z
 _atom_site_thermal_displace_type
 _atom_site_B_iso_or_equiv
 _atom_site_type_symbol
Cl1 1.0000000000 0.1691160603 0.9191160603 0.7500000000  Biso 1.0 Cl
Cl2 1.0000000000 0.4191160603 0.6691160603 0.2500000000  Biso 1.0 Cl
Cl3 1.0000000000 0.8308839397 0.0808839397 0.2500000000  Biso 1.0 Cl
Cl4 1.0000000000 0.5808839397 0.3308839397 0.7500000000  Biso 1.0 Cl
O5 1.0000000000 0.1250000000 0.3750000000 0.2500000000  Biso 1.0 O
O6 1.0000000000 0.8750000000 0.6250000000 0.7500000000  Biso 1.0 O
Pd7 1.0000000000 0.0000000000 0.0000000000 0.0000000000  Biso 1.0 Pd
Pd8 1.0000000000 0.0000000000 0.5000000000 0.5000000000  Biso 1.0 Pd
Pd9 1.0000000000 0.5000000000 0.5000000000 0.5000000000  Biso 1.0 Pd
Pd10 1.0000000000 0.0000000000 0.5000000000 0.0000000000  Biso 1.0 Pd
