# AFLOW.org Repositories
# Cl4Li2Zn1   [FCC,FCC,cF56] (STD_PRIM doi
data_Cl4Li2Zn1
_pd_phase_name Cl4Li2Zn1
_cell_length_a  7.3233691794
_cell_length_b  7.3233691794
_cell_length_c  7.3233691794
_cell_angle_alpha  60.0000000000
_cell_angle_beta  60.0000000000
_cell_angle_gamma  60.0000000000
_symmetry_space_group_name_H-M  'P1'
_symmetry_Int_Tables_Number  1
loop_
_symmetry_equiv_pos_site_id
_symmetry_equiv_pos_as_xyz
  1  x,y,z
loop_
 _atom_site_label
 _atom_site_occupancy
 _atom_site_fract_x
 _atom_site_fract_y
 _atom_site_fract_z
 _atom_site_thermal_displace_type
 _atom_site_B_iso_or_equiv
 _atom_site_type_symbol
Cl1 1.0000000000 0.2443864261 0.2518711913 0.2518711913  Biso 1.0 Cl
Cl2 1.0000000000 0.7518711913 0.7443864261 0.2518711913  Biso 1.0 Cl
Cl3 1.0000000000 0.7518711913 0.2518711913 0.7443864261  Biso 1.0 Cl
Cl4 1.0000000000 0.7518711913 0.2518711913 0.2518711913  Biso 1.0 Cl
Cl5 1.0000000000 0.2481288087 0.2556135739 0.7481288087  Biso 1.0 Cl
Cl6 1.0000000000 0.7556135739 0.7481288087 0.7481288087  Biso 1.0 Cl
Cl7 1.0000000000 0.2481288087 0.7481288087 0.2556135739  Biso 1.0 Cl
Cl8 1.0000000000 0.2481288087 0.7481288087 0.7481288087  Biso 1.0 Cl
Li9 1.0000000000 0.5000000000 0.5000000000 0.5000000000  Biso 1.0 Li
Li10 1.0000000000 0.0000000000 0.0000000000 0.5000000000  Biso 1.0 Li
Li11 1.0000000000 0.0000000000 0.5000000000 0.0000000000  Biso 1.0 Li
Li12 1.0000000000 0.0000000000 0.5000000000 0.5000000000  Biso 1.0 Li
Zn13 1.0000000000 0.6250000000 0.1250000000 0.1250000000  Biso 1.0 Zn
Zn14 1.0000000000 0.3750000000 0.8750000000 0.8750000000  Biso 1.0 Zn
