# AFLOW.org Repositories
# Co1Er1Si2   [ORCC,ORCC,oS16] (STD_PRIM d
data_Co1Er1Si2
_pd_phase_name Co1Er1Si2
_cell_length_a  8.2181948220
_cell_length_b  8.2181948220
_cell_length_c  3.9480443735
_cell_angle_alpha  90.0000000000
_cell_angle_beta  90.0000000000
_cell_angle_gamma  151.9157380398
_symmetry_space_group_name_H-M  'P1'
_symmetry_Int_Tables_Number  1
loop_
_symmetry_equiv_pos_site_id
_symmetry_equiv_pos_as_xyz
  1  x,y,z
loop_
 _atom_site_label
 _atom_site_occupancy
 _atom_site_fract_x
 _atom_site_fract_y
 _atom_site_fract_z
 _atom_site_thermal_displace_type
 _atom_site_B_iso_or_equiv
 _atom_site_type_symbol
Co1 1.0000000000 0.3189451410 0.6810548590 0.7500000000  Biso 1.0 Co
Co2 1.0000000000 0.6810548590 0.3189451410 0.2500000000  Biso 1.0 Co
Er3 1.0000000000 0.1072066442 0.8927933558 0.7500000000  Biso 1.0 Er
Er4 1.0000000000 0.8927933558 0.1072066442 0.2500000000  Biso 1.0 Er
Si5 1.0000000000 0.4562948487 0.5437051513 0.7500000000  Biso 1.0 Si
Si6 1.0000000000 0.5437051513 0.4562948487 0.2500000000  Biso 1.0 Si
Si7 1.0000000000 0.7500291424 0.2499708576 0.7500000000  Biso 1.0 Si
Si8 1.0000000000 0.2499708576 0.7500291424 0.2500000000  Biso 1.0 Si
