# AFLOW.org Repositories
# Co1In8Y2   [TET,TET,tP11] (STD_PRIM doi:
data_Co1In8Y2
_pd_phase_name Co1In8Y2
_cell_length_a  4.5755988766
_cell_length_b  4.5755988766
_cell_length_c  12.1822979711
_cell_angle_alpha  90.0000000000
_cell_angle_beta  90.0000000000
_cell_angle_gamma  90.0000000000
_symmetry_space_group_name_H-M  'P1'
_symmetry_Int_Tables_Number  1
loop_
_symmetry_equiv_pos_site_id
_symmetry_equiv_pos_as_xyz
  1  x,y,z
loop_
 _atom_site_label
 _atom_site_occupancy
 _atom_site_fract_x
 _atom_site_fract_y
 _atom_site_fract_z
 _atom_site_thermal_displace_type
 _atom_site_B_iso_or_equiv
 _atom_site_type_symbol
Co1 1.0000000000 0.0000000000 0.0000000000 0.0000000000  Biso 1.0 Co
In2 1.0000000000 0.0000000000 0.5000000000 0.1182963683  Biso 1.0 In
In3 1.0000000000 0.5000000000 0.0000000000 0.1182963683  Biso 1.0 In
In4 1.0000000000 0.0000000000 0.5000000000 0.8817036317  Biso 1.0 In
In5 1.0000000000 0.5000000000 0.0000000000 0.8817036317  Biso 1.0 In
In6 1.0000000000 0.0000000000 0.5000000000 0.5000000000  Biso 1.0 In
In7 1.0000000000 0.5000000000 0.0000000000 0.5000000000  Biso 1.0 In
In8 1.0000000000 0.5000000000 0.5000000000 0.3063037982  Biso 1.0 In
In9 1.0000000000 0.5000000000 0.5000000000 0.6936962018  Biso 1.0 In
Y10 1.0000000000 0.0000000000 0.0000000000 0.3068976958  Biso 1.0 Y
Y11 1.0000000000 0.0000000000 0.0000000000 0.6931023042  Biso 1.0 Y
