# AFLOW.org Repositories
# Co1K1O2   [TET,TET,tP8] (STD_PRIM doi:10
data_Co1K1O2
_pd_phase_name Co1K1O2
_cell_length_a  3.8526213133
_cell_length_b  3.8526213133
_cell_length_c  8.0152951686
_cell_angle_alpha  90.0000000000
_cell_angle_beta  90.0000000000
_cell_angle_gamma  90.0000000000
_symmetry_space_group_name_H-M  'P1'
_symmetry_Int_Tables_Number  1
loop_
_symmetry_equiv_pos_site_id
_symmetry_equiv_pos_as_xyz
  1  x,y,z
loop_
 _atom_site_label
 _atom_site_occupancy
 _atom_site_fract_x
 _atom_site_fract_y
 _atom_site_fract_z
 _atom_site_thermal_displace_type
 _atom_site_B_iso_or_equiv
 _atom_site_type_symbol
Co1 1.0000000000 0.2500000000 0.2500000000 0.0911342921  Biso 1.0 Co
Co2 1.0000000000 0.7500000000 0.7500000000 0.9088657079  Biso 1.0 Co
K3 1.0000000000 0.2500000000 0.2500000000 0.6576854800  Biso 1.0 K
K4 1.0000000000 0.7500000000 0.7500000000 0.3423145200  Biso 1.0 K
O5 1.0000000000 0.2500000000 0.2500000000 0.3087342410  Biso 1.0 O
O6 1.0000000000 0.7500000000 0.7500000000 0.6912657590  Biso 1.0 O
O7 1.0000000000 0.7500000000 0.2500000000 0.0000000000  Biso 1.0 O
O8 1.0000000000 0.2500000000 0.7500000000 0.0000000000  Biso 1.0 O
