# AFLOW.org Repositories
# Co1N3   [BCC,BCC,cI32] (STD_PRIM doi:10.
data_Co1N3
_pd_phase_name Co1N3
_cell_length_a  5.7159571602
_cell_length_b  5.7159571602
_cell_length_c  5.7159571602
_cell_angle_alpha  109.4712206345
_cell_angle_beta  109.4712206345
_cell_angle_gamma  109.4712206345
_symmetry_space_group_name_H-M  'P1'
_symmetry_Int_Tables_Number  1
loop_
_symmetry_equiv_pos_site_id
_symmetry_equiv_pos_as_xyz
  1  x,y,z
loop_
 _atom_site_label
 _atom_site_occupancy
 _atom_site_fract_x
 _atom_site_fract_y
 _atom_site_fract_z
 _atom_site_thermal_displace_type
 _atom_site_B_iso_or_equiv
 _atom_site_type_symbol
Co1 1.0000000000 0.5000000000 0.0000000000 0.0000000000  Biso 1.0 Co
Co2 1.0000000000 0.5000000000 0.5000000000 0.5000000000  Biso 1.0 Co
Co3 1.0000000000 0.0000000000 0.5000000000 0.0000000000  Biso 1.0 Co
Co4 1.0000000000 0.0000000000 0.0000000000 0.5000000000  Biso 1.0 Co
N5 1.0000000000 0.6939959405 0.7858483890 0.0918524485  Biso 1.0 N
N6 1.0000000000 0.3060040595 0.3978565081 0.0918524485  Biso 1.0 N
N7 1.0000000000 0.6939959405 0.6021434919 0.9081475515  Biso 1.0 N
N8 1.0000000000 0.3060040595 0.2141516110 0.9081475515  Biso 1.0 N
N9 1.0000000000 0.9081475515 0.3060040595 0.2141516110  Biso 1.0 N
N10 1.0000000000 0.9081475515 0.6939959405 0.6021434919  Biso 1.0 N
N11 1.0000000000 0.0918524485 0.3060040595 0.3978565081  Biso 1.0 N
N12 1.0000000000 0.0918524485 0.6939959405 0.7858483890  Biso 1.0 N
N13 1.0000000000 0.6021434919 0.9081475515 0.6939959405  Biso 1.0 N
N14 1.0000000000 0.2141516110 0.9081475515 0.3060040595  Biso 1.0 N
N15 1.0000000000 0.7858483890 0.0918524485 0.6939959405  Biso 1.0 N
N16 1.0000000000 0.3978565081 0.0918524485 0.3060040595  Biso 1.0 N
