# AFLOW.org Repositories
# Co1Rh2S4   [FCC,FCC,cF56] (STD_PRIM doi:
data_Co1Rh2S4
_pd_phase_name Co1Rh2S4
_cell_length_a  7.0838580755
_cell_length_b  7.0838580755
_cell_length_c  7.0838580755
_cell_angle_alpha  60.0000000000
_cell_angle_beta  60.0000000000
_cell_angle_gamma  60.0000000000
_symmetry_space_group_name_H-M  'P1'
_symmetry_Int_Tables_Number  1
loop_
_symmetry_equiv_pos_site_id
_symmetry_equiv_pos_as_xyz
  1  x,y,z
loop_
 _atom_site_label
 _atom_site_occupancy
 _atom_site_fract_x
 _atom_site_fract_y
 _atom_site_fract_z
 _atom_site_thermal_displace_type
 _atom_site_B_iso_or_equiv
 _atom_site_type_symbol
Co1 1.0000000000 0.0000000000 0.0000000000 0.0000000000  Biso 1.0 Co
Co2 1.0000000000 0.7500000000 0.7500000000 0.7500000000  Biso 1.0 Co
Rh3 1.0000000000 0.3750000000 0.3750000000 0.8750000000  Biso 1.0 Rh
Rh4 1.0000000000 0.8750000000 0.3750000000 0.3750000000  Biso 1.0 Rh
Rh5 1.0000000000 0.3750000000 0.3750000000 0.3750000000  Biso 1.0 Rh
Rh6 1.0000000000 0.3750000000 0.8750000000 0.3750000000  Biso 1.0 Rh
S7 1.0000000000 0.6133665611 0.6133665611 0.1599003166  Biso 1.0 S
S8 1.0000000000 0.1599003166 0.6133665611 0.6133665611  Biso 1.0 S
S9 1.0000000000 0.6133665611 0.6133665611 0.6133665611  Biso 1.0 S
S10 1.0000000000 0.6133665611 0.1599003166 0.6133665611  Biso 1.0 S
S11 1.0000000000 0.5900996834 0.1366334389 0.1366334389  Biso 1.0 S
S12 1.0000000000 0.1366334389 0.1366334389 0.5900996834  Biso 1.0 S
S13 1.0000000000 0.1366334389 0.1366334389 0.1366334389  Biso 1.0 S
S14 1.0000000000 0.1366334389 0.5900996834 0.1366334389  Biso 1.0 S
