# AFLOW.org Repositories
# Co1Sb2   [ORC,ORC,oP6] (STD_PRIM doi:10.
data_Co1Sb2
_pd_phase_name Co1Sb2
_cell_length_a  3.2745712386
_cell_length_b  5.9414452829
_cell_length_c  7.0033059938
_cell_angle_alpha  90.0000000000
_cell_angle_beta  90.0000000000
_cell_angle_gamma  90.0000000000
_symmetry_space_group_name_H-M  'P1'
_symmetry_Int_Tables_Number  1
loop_
_symmetry_equiv_pos_site_id
_symmetry_equiv_pos_as_xyz
  1  x,y,z
loop_
 _atom_site_label
 _atom_site_occupancy
 _atom_site_fract_x
 _atom_site_fract_y
 _atom_site_fract_z
 _atom_site_thermal_displace_type
 _atom_site_B_iso_or_equiv
 _atom_site_type_symbol
Co1 1.0000000000 0.0000000000 0.0000000000 0.0000000000  Biso 1.0 Co
Co2 1.0000000000 0.5000000000 0.5000000000 0.5000000000  Biso 1.0 Co
Sb3 1.0000000000 0.0000000000 0.1800515275 0.6411559694  Biso 1.0 Sb
Sb4 1.0000000000 0.0000000000 0.8199484725 0.3588440306  Biso 1.0 Sb
Sb5 1.0000000000 0.5000000000 0.3199484725 0.1411559694  Biso 1.0 Sb
Sb6 1.0000000000 0.5000000000 0.6800515275 0.8588440306  Biso 1.0 Sb
