# AFLOW.org Repositories
# Co1S1Sb1   [CUB,CUB,cP12] (STD_PRIM doi:
data_Co1S1Sb1
_pd_phase_name Co1S1Sb1
_cell_length_a  5.8568562464
_cell_length_b  5.8568562464
_cell_length_c  5.8568562464
_cell_angle_alpha  90.0000000000
_cell_angle_beta  90.0000000000
_cell_angle_gamma  90.0000000000
_symmetry_space_group_name_H-M  'P1'
_symmetry_Int_Tables_Number  1
loop_
_symmetry_equiv_pos_site_id
_symmetry_equiv_pos_as_xyz
  1  x,y,z
loop_
 _atom_site_label
 _atom_site_occupancy
 _atom_site_fract_x
 _atom_site_fract_y
 _atom_site_fract_z
 _atom_site_thermal_displace_type
 _atom_site_B_iso_or_equiv
 _atom_site_type_symbol
Co1 1.0000000000 0.9811671138 0.9811671138 0.0188328862  Biso 1.0 Co
Co2 1.0000000000 0.5188328862 0.0188328862 0.5188328862  Biso 1.0 Co
Co3 1.0000000000 0.0188328862 0.4811671138 0.4811671138  Biso 1.0 Co
Co4 1.0000000000 0.4811671138 0.5188328862 0.9811671138  Biso 1.0 Co
S5 1.0000000000 0.3788647800 0.3788647800 0.6211352200  Biso 1.0 S
S6 1.0000000000 0.1211352200 0.6211352200 0.1211352200  Biso 1.0 S
S7 1.0000000000 0.6211352200 0.8788647800 0.8788647800  Biso 1.0 S
S8 1.0000000000 0.8788647800 0.1211352200 0.3788647800  Biso 1.0 S
Sb9 1.0000000000 0.6271579797 0.6271579797 0.3728420203  Biso 1.0 Sb
Sb10 1.0000000000 0.8728420203 0.3728420203 0.8728420203  Biso 1.0 Sb
Sb11 1.0000000000 0.3728420203 0.1271579797 0.1271579797  Biso 1.0 Sb
Sb12 1.0000000000 0.1271579797 0.8728420203 0.6271579797  Biso 1.0 Sb
