# AFLOW.org Repositories
# Co1Si1V1   [ORC,ORC,oP12] (STD_PRIM doi:
data_Co1Si1V1
_pd_phase_name Co1Si1V1
_cell_length_a  3.5282920565
_cell_length_b  5.9777912124
_cell_length_c  6.7679651787
_cell_angle_alpha  90.0000000000
_cell_angle_beta  90.0000000000
_cell_angle_gamma  90.0000000000
_symmetry_space_group_name_H-M  'P1'
_symmetry_Int_Tables_Number  1
loop_
_symmetry_equiv_pos_site_id
_symmetry_equiv_pos_as_xyz
  1  x,y,z
loop_
 _atom_site_label
 _atom_site_occupancy
 _atom_site_fract_x
 _atom_site_fract_y
 _atom_site_fract_z
 _atom_site_thermal_displace_type
 _atom_site_B_iso_or_equiv
 _atom_site_type_symbol
Co1 1.0000000000 0.2500000000 0.1411053312 0.5632652663  Biso 1.0 Co
Co2 1.0000000000 0.7500000000 0.3588946688 0.0632652663  Biso 1.0 Co
Co3 1.0000000000 0.7500000000 0.8588946688 0.4367347337  Biso 1.0 Co
Co4 1.0000000000 0.2500000000 0.6411053312 0.9367347337  Biso 1.0 Co
Si5 1.0000000000 0.2500000000 0.2722265131 0.8786434597  Biso 1.0 Si
Si6 1.0000000000 0.7500000000 0.2277734869 0.3786434597  Biso 1.0 Si
Si7 1.0000000000 0.7500000000 0.7277734869 0.1213565403  Biso 1.0 Si
Si8 1.0000000000 0.2500000000 0.7722265131 0.6213565403  Biso 1.0 Si
V9 1.0000000000 0.2500000000 0.0208900994 0.1777174297  Biso 1.0 V
V10 1.0000000000 0.7500000000 0.4791099006 0.6777174297  Biso 1.0 V
V11 1.0000000000 0.7500000000 0.9791099006 0.8222825703  Biso 1.0 V
V12 1.0000000000 0.2500000000 0.5208900994 0.3222825703  Biso 1.0 V
