# AFLOW.org Repositories
# Co1Ti2   [FCC,FCC,cF96] (STD_PRIM doi:10
data_Co1Ti2
_pd_phase_name Co1Ti2
_cell_length_a  8.0218089389
_cell_length_b  8.0218089389
_cell_length_c  8.0218089389
_cell_angle_alpha  60.0000000000
_cell_angle_beta  60.0000000000
_cell_angle_gamma  60.0000000000
_symmetry_space_group_name_H-M  'P1'
_symmetry_Int_Tables_Number  1
loop_
_symmetry_equiv_pos_site_id
_symmetry_equiv_pos_as_xyz
  1  x,y,z
loop_
 _atom_site_label
 _atom_site_occupancy
 _atom_site_fract_x
 _atom_site_fract_y
 _atom_site_fract_z
 _atom_site_thermal_displace_type
 _atom_site_B_iso_or_equiv
 _atom_site_type_symbol
Co1 1.0000000000 0.7785972237 0.7785972237 0.6642083289  Biso 1.0 Co
Co2 1.0000000000 0.7785972237 0.1642083289 0.2785972237  Biso 1.0 Co
Co3 1.0000000000 0.1642083289 0.7785972237 0.2785972237  Biso 1.0 Co
Co4 1.0000000000 0.7785972237 0.7785972237 0.2785972237  Biso 1.0 Co
Co5 1.0000000000 0.2214027763 0.8357916711 0.7214027763  Biso 1.0 Co
Co6 1.0000000000 0.2214027763 0.2214027763 0.3357916711  Biso 1.0 Co
Co7 1.0000000000 0.8357916711 0.2214027763 0.7214027763  Biso 1.0 Co
Co8 1.0000000000 0.2214027763 0.2214027763 0.7214027763  Biso 1.0 Co
Ti9 1.0000000000 0.0000000000 0.0000000000 0.0000000000  Biso 1.0 Ti
Ti10 1.0000000000 0.0000000000 0.5000000000 0.5000000000  Biso 1.0 Ti
Ti11 1.0000000000 0.5000000000 0.0000000000 0.5000000000  Biso 1.0 Ti
Ti12 1.0000000000 0.0000000000 0.0000000000 0.5000000000  Biso 1.0 Ti
Ti13 1.0000000000 0.5609848672 0.5609848672 0.6890151328  Biso 1.0 Ti
Ti14 1.0000000000 0.1890151328 0.1890151328 0.0609848672  Biso 1.0 Ti
Ti15 1.0000000000 0.1890151328 0.5609848672 0.6890151328  Biso 1.0 Ti
Ti16 1.0000000000 0.5609848672 0.1890151328 0.0609848672  Biso 1.0 Ti
Ti17 1.0000000000 0.5609848672 0.1890151328 0.6890151328  Biso 1.0 Ti
Ti18 1.0000000000 0.1890151328 0.5609848672 0.0609848672  Biso 1.0 Ti
Ti19 1.0000000000 0.4390151328 0.8109848672 0.9390151328  Biso 1.0 Ti
Ti20 1.0000000000 0.8109848672 0.4390151328 0.3109848672  Biso 1.0 Ti
Ti21 1.0000000000 0.8109848672 0.8109848672 0.9390151328  Biso 1.0 Ti
Ti22 1.0000000000 0.4390151328 0.4390151328 0.3109848672  Biso 1.0 Ti
Ti23 1.0000000000 0.4390151328 0.8109848672 0.3109848672  Biso 1.0 Ti
Ti24 1.0000000000 0.8109848672 0.4390151328 0.9390151328  Biso 1.0 Ti
