# AFLOW.org Repositories
# Co2N1Zr4   [FCC,FCC,cF112] (STD_PRIM doi
data_Co2N1Zr4
_pd_phase_name Co2N1Zr4
_cell_length_a  8.6124128472
_cell_length_b  8.6124128472
_cell_length_c  8.6124128472
_cell_angle_alpha  60.0000000000
_cell_angle_beta  60.0000000000
_cell_angle_gamma  60.0000000000
_symmetry_space_group_name_H-M  'P1'
_symmetry_Int_Tables_Number  1
loop_
_symmetry_equiv_pos_site_id
_symmetry_equiv_pos_as_xyz
  1  x,y,z
loop_
 _atom_site_label
 _atom_site_occupancy
 _atom_site_fract_x
 _atom_site_fract_y
 _atom_site_fract_z
 _atom_site_thermal_displace_type
 _atom_site_B_iso_or_equiv
 _atom_site_type_symbol
Co1 1.0000000000 0.7815535819 0.7815535819 0.6553392544  Biso 1.0 Co
Co2 1.0000000000 0.7815535819 0.1553392544 0.2815535819  Biso 1.0 Co
Co3 1.0000000000 0.1553392544 0.7815535819 0.2815535819  Biso 1.0 Co
Co4 1.0000000000 0.7815535819 0.7815535819 0.2815535819  Biso 1.0 Co
Co5 1.0000000000 0.2184464181 0.8446607456 0.7184464181  Biso 1.0 Co
Co6 1.0000000000 0.2184464181 0.2184464181 0.3446607456  Biso 1.0 Co
Co7 1.0000000000 0.8446607456 0.2184464181 0.7184464181  Biso 1.0 Co
Co8 1.0000000000 0.2184464181 0.2184464181 0.7184464181  Biso 1.0 Co
N9 1.0000000000 0.5000000000 0.5000000000 0.5000000000  Biso 1.0 N
N10 1.0000000000 0.5000000000 0.0000000000 0.0000000000  Biso 1.0 N
N11 1.0000000000 0.0000000000 0.5000000000 0.0000000000  Biso 1.0 N
N12 1.0000000000 0.5000000000 0.5000000000 0.0000000000  Biso 1.0 N
Zr13 1.0000000000 0.0000000000 0.0000000000 0.0000000000  Biso 1.0 Zr
Zr14 1.0000000000 0.0000000000 0.5000000000 0.5000000000  Biso 1.0 Zr
Zr15 1.0000000000 0.5000000000 0.0000000000 0.5000000000  Biso 1.0 Zr
Zr16 1.0000000000 0.0000000000 0.0000000000 0.5000000000  Biso 1.0 Zr
Zr17 1.0000000000 0.5586728552 0.5586728552 0.6913271448  Biso 1.0 Zr
Zr18 1.0000000000 0.1913271448 0.1913271448 0.0586728552  Biso 1.0 Zr
Zr19 1.0000000000 0.1913271448 0.5586728552 0.6913271448  Biso 1.0 Zr
Zr20 1.0000000000 0.5586728552 0.1913271448 0.0586728552  Biso 1.0 Zr
Zr21 1.0000000000 0.5586728552 0.1913271448 0.6913271448  Biso 1.0 Zr
Zr22 1.0000000000 0.1913271448 0.5586728552 0.0586728552  Biso 1.0 Zr
Zr23 1.0000000000 0.4413271448 0.8086728552 0.9413271448  Biso 1.0 Zr
Zr24 1.0000000000 0.8086728552 0.4413271448 0.3086728552  Biso 1.0 Zr
Zr25 1.0000000000 0.8086728552 0.8086728552 0.9413271448  Biso 1.0 Zr
Zr26 1.0000000000 0.4413271448 0.4413271448 0.3086728552  Biso 1.0 Zr
Zr27 1.0000000000 0.4413271448 0.8086728552 0.3086728552  Biso 1.0 Zr
Zr28 1.0000000000 0.8086728552 0.4413271448 0.9413271448  Biso 1.0 Zr
