# AFLOW.org Repositories
# Co4Ge13Yb3   [CUB,CUB,cP40] (STD_PRIM do
data_Co4Ge13Yb3
_pd_phase_name Co4Ge13Yb3
_cell_length_a  8.7619410499
_cell_length_b  8.7619410499
_cell_length_c  8.7619410499
_cell_angle_alpha  90.0000000000
_cell_angle_beta  90.0000000000
_cell_angle_gamma  90.0000000000
_symmetry_space_group_name_H-M  'P1'
_symmetry_Int_Tables_Number  1
loop_
_symmetry_equiv_pos_site_id
_symmetry_equiv_pos_as_xyz
  1  x,y,z
loop_
 _atom_site_label
 _atom_site_occupancy
 _atom_site_fract_x
 _atom_site_fract_y
 _atom_site_fract_z
 _atom_site_thermal_displace_type
 _atom_site_B_iso_or_equiv
 _atom_site_type_symbol
Co1 1.0000000000 0.7500000000 0.7500000000 0.2500000000  Biso 1.0 Co
Co2 1.0000000000 0.2500000000 0.2500000000 0.2500000000  Biso 1.0 Co
Co3 1.0000000000 0.2500000000 0.7500000000 0.7500000000  Biso 1.0 Co
Co4 1.0000000000 0.7500000000 0.2500000000 0.7500000000  Biso 1.0 Co
Co5 1.0000000000 0.2500000000 0.2500000000 0.7500000000  Biso 1.0 Co
Co6 1.0000000000 0.7500000000 0.7500000000 0.7500000000  Biso 1.0 Co
Co7 1.0000000000 0.7500000000 0.2500000000 0.2500000000  Biso 1.0 Co
Co8 1.0000000000 0.2500000000 0.7500000000 0.2500000000  Biso 1.0 Co
Ge9 1.0000000000 0.0000000000 0.0000000000 0.0000000000  Biso 1.0 Ge
Ge10 1.0000000000 0.5000000000 0.5000000000 0.5000000000  Biso 1.0 Ge
Ge11 1.0000000000 0.0000000000 0.8460032268 0.2998095695  Biso 1.0 Ge
Ge12 1.0000000000 0.0000000000 0.1539967732 0.2998095695  Biso 1.0 Ge
Ge13 1.0000000000 0.0000000000 0.8460032268 0.7001904305  Biso 1.0 Ge
Ge14 1.0000000000 0.0000000000 0.1539967732 0.7001904305  Biso 1.0 Ge
Ge15 1.0000000000 0.7001904305 0.0000000000 0.1539967732  Biso 1.0 Ge
Ge16 1.0000000000 0.7001904305 0.0000000000 0.8460032268  Biso 1.0 Ge
Ge17 1.0000000000 0.2998095695 0.0000000000 0.1539967732  Biso 1.0 Ge
Ge18 1.0000000000 0.2998095695 0.0000000000 0.8460032268  Biso 1.0 Ge
Ge19 1.0000000000 0.8460032268 0.7001904305 0.0000000000  Biso 1.0 Ge
Ge20 1.0000000000 0.1539967732 0.7001904305 0.0000000000  Biso 1.0 Ge
Ge21 1.0000000000 0.8460032268 0.2998095695 0.0000000000  Biso 1.0 Ge
Ge22 1.0000000000 0.1539967732 0.2998095695 0.0000000000  Biso 1.0 Ge
Ge23 1.0000000000 0.3460032268 0.5000000000 0.2001904305  Biso 1.0 Ge
Ge24 1.0000000000 0.6539967732 0.5000000000 0.2001904305  Biso 1.0 Ge
Ge25 1.0000000000 0.3460032268 0.5000000000 0.7998095695  Biso 1.0 Ge
Ge26 1.0000000000 0.6539967732 0.5000000000 0.7998095695  Biso 1.0 Ge
Ge27 1.0000000000 0.5000000000 0.2001904305 0.3460032268  Biso 1.0 Ge
Ge28 1.0000000000 0.5000000000 0.2001904305 0.6539967732  Biso 1.0 Ge
Ge29 1.0000000000 0.5000000000 0.7998095695 0.3460032268  Biso 1.0 Ge
Ge30 1.0000000000 0.5000000000 0.7998095695 0.6539967732  Biso 1.0 Ge
Ge31 1.0000000000 0.2001904305 0.3460032268 0.5000000000  Biso 1.0 Ge
Ge32 1.0000000000 0.2001904305 0.6539967732 0.5000000000  Biso 1.0 Ge
Ge33 1.0000000000 0.7998095695 0.3460032268 0.5000000000  Biso 1.0 Ge
Ge34 1.0000000000 0.7998095695 0.6539967732 0.5000000000  Biso 1.0 Ge
Yb35 1.0000000000 0.7500000000 0.0000000000 0.5000000000  Biso 1.0 Yb
Yb36 1.0000000000 0.2500000000 0.0000000000 0.5000000000  Biso 1.0 Yb
Yb37 1.0000000000 0.5000000000 0.7500000000 0.0000000000  Biso 1.0 Yb
Yb38 1.0000000000 0.5000000000 0.2500000000 0.0000000000  Biso 1.0 Yb
Yb39 1.0000000000 0.0000000000 0.5000000000 0.2500000000  Biso 1.0 Yb
Yb40 1.0000000000 0.0000000000 0.5000000000 0.7500000000  Biso 1.0 Yb
