# AFLOW.org Repositories
# Cr1Er1O4   [BCT,BCT1,tI24] (STD_PRIM doi
data_Cr1Er1O4
_pd_phase_name Cr1Er1O4
_cell_length_a  5.9447869724
_cell_length_b  5.9447869724
_cell_length_c  5.9447869724
_cell_angle_alpha  106.0187665247
_cell_angle_beta  106.0187665247
_cell_angle_gamma  116.6215663491
_symmetry_space_group_name_H-M  'P1'
_symmetry_Int_Tables_Number  1
loop_
_symmetry_equiv_pos_site_id
_symmetry_equiv_pos_as_xyz
  1  x,y,z
loop_
 _atom_site_label
 _atom_site_occupancy
 _atom_site_fract_x
 _atom_site_fract_y
 _atom_site_fract_z
 _atom_site_thermal_displace_type
 _atom_site_B_iso_or_equiv
 _atom_site_type_symbol
Cr1 1.0000000000 0.5000000000 0.5000000000 0.0000000000  Biso 1.0 Cr
Cr2 1.0000000000 0.7500000000 0.2500000000 0.5000000000  Biso 1.0 Cr
Er3 1.0000000000 0.0000000000 0.0000000000 0.0000000000  Biso 1.0 Er
Er4 1.0000000000 0.2500000000 0.7500000000 0.5000000000  Biso 1.0 Er
O5 1.0000000000 0.8611730482 0.6763546360 0.1848184122  Biso 1.0 O
O6 1.0000000000 0.4915362239 0.6763546360 0.8151815878  Biso 1.0 O
O7 1.0000000000 0.9263546360 0.6111730482 0.6848184122  Biso 1.0 O
O8 1.0000000000 0.9263546360 0.2415362239 0.3151815878  Biso 1.0 O
O9 1.0000000000 0.7584637761 0.0736453640 0.6848184122  Biso 1.0 O
O10 1.0000000000 0.3888269518 0.0736453640 0.3151815878  Biso 1.0 O
O11 1.0000000000 0.3236453640 0.1388269518 0.8151815878  Biso 1.0 O
O12 1.0000000000 0.3236453640 0.5084637761 0.1848184122  Biso 1.0 O
