# AFLOW.org Repositories
# Cr1F4Sr1   [BCT,BCT2,tI24] (STD_PRIM doi
data_Cr1F4Sr1
_pd_phase_name Cr1F4Sr1
_cell_length_a  6.8793559579
_cell_length_b  6.8793559579
_cell_length_c  6.8793559579
_cell_angle_alpha  130.4498270182
_cell_angle_beta  130.4498270182
_cell_angle_gamma  72.6886591762
_symmetry_space_group_name_H-M  'P1'
_symmetry_Int_Tables_Number  1
loop_
_symmetry_equiv_pos_site_id
_symmetry_equiv_pos_as_xyz
  1  x,y,z
loop_
 _atom_site_label
 _atom_site_occupancy
 _atom_site_fract_x
 _atom_site_fract_y
 _atom_site_fract_z
 _atom_site_thermal_displace_type
 _atom_site_B_iso_or_equiv
 _atom_site_type_symbol
Cr1 1.0000000000 0.5000000000 0.0000000000 0.5000000000  Biso 1.0 Cr
Cr2 1.0000000000 0.0000000000 0.5000000000 0.5000000000  Biso 1.0 Cr
F3 1.0000000000 0.8041712357 0.3041712357 0.8564362229  Biso 1.0 F
F4 1.0000000000 0.4477350128 0.9477350128 0.1435637771  Biso 1.0 F
F5 1.0000000000 0.3041712357 0.4477350128 0.5000000000  Biso 1.0 F
F6 1.0000000000 0.9477350128 0.8041712357 0.5000000000  Biso 1.0 F
F7 1.0000000000 0.0522649872 0.1958287643 0.5000000000  Biso 1.0 F
F8 1.0000000000 0.6958287643 0.5522649872 0.5000000000  Biso 1.0 F
F9 1.0000000000 0.5522649872 0.0522649872 0.8564362229  Biso 1.0 F
F10 1.0000000000 0.1958287643 0.6958287643 0.1435637771  Biso 1.0 F
Sr11 1.0000000000 0.2500000000 0.2500000000 0.0000000000  Biso 1.0 Sr
Sr12 1.0000000000 0.7500000000 0.7500000000 0.0000000000  Biso 1.0 Sr
