# AFLOW.org Repositories
# Cr1La1Se3   [ORC,ORC,oP20] (STD_PRIM doi
data_Cr1La1Se3
_pd_phase_name Cr1La1Se3
_cell_length_a  4.0619334990
_cell_length_b  8.2557876258
_cell_length_c  14.0306786735
_cell_angle_alpha  90.0000000000
_cell_angle_beta  90.0000000000
_cell_angle_gamma  90.0000000000
_symmetry_space_group_name_H-M  'P1'
_symmetry_Int_Tables_Number  1
loop_
_symmetry_equiv_pos_site_id
_symmetry_equiv_pos_as_xyz
  1  x,y,z
loop_
 _atom_site_label
 _atom_site_occupancy
 _atom_site_fract_x
 _atom_site_fract_y
 _atom_site_fract_z
 _atom_site_thermal_displace_type
 _atom_site_B_iso_or_equiv
 _atom_site_type_symbol
Cr1 1.0000000000 0.2500000000 0.3402476251 0.0525948335  Biso 1.0 Cr
Cr2 1.0000000000 0.7500000000 0.1597523749 0.5525948335  Biso 1.0 Cr
Cr3 1.0000000000 0.7500000000 0.6597523749 0.9474051665  Biso 1.0 Cr
Cr4 1.0000000000 0.2500000000 0.8402476251 0.4474051665  Biso 1.0 Cr
La5 1.0000000000 0.2500000000 0.0949094540 0.8286596957  Biso 1.0 La
La6 1.0000000000 0.7500000000 0.4050905460 0.3286596957  Biso 1.0 La
La7 1.0000000000 0.7500000000 0.9050905460 0.1713403043  Biso 1.0 La
La8 1.0000000000 0.2500000000 0.5949094540 0.6713403043  Biso 1.0 La
Se9 1.0000000000 0.2500000000 0.1900504092 0.2125565267  Biso 1.0 Se
Se10 1.0000000000 0.7500000000 0.3099495908 0.7125565267  Biso 1.0 Se
Se11 1.0000000000 0.7500000000 0.8099495908 0.7874434733  Biso 1.0 Se
Se12 1.0000000000 0.2500000000 0.6900504092 0.2874434733  Biso 1.0 Se
Se13 1.0000000000 0.2500000000 0.3426713052 0.4957751113  Biso 1.0 Se
Se14 1.0000000000 0.7500000000 0.1573286948 0.9957751113  Biso 1.0 Se
Se15 1.0000000000 0.7500000000 0.6573286948 0.5042248887  Biso 1.0 Se
Se16 1.0000000000 0.2500000000 0.8426713052 0.0042248887  Biso 1.0 Se
Se17 1.0000000000 0.2500000000 0.4847259262 0.8915080592  Biso 1.0 Se
Se18 1.0000000000 0.7500000000 0.0152740738 0.3915080592  Biso 1.0 Se
Se19 1.0000000000 0.7500000000 0.5152740738 0.1084919408  Biso 1.0 Se
Se20 1.0000000000 0.2500000000 0.9847259262 0.6084919408  Biso 1.0 Se
