# AFLOW.org Repositories
# Cr1N1Nb1   [TET,TET,tP6] (STD_PRIM doi:1
data_Cr1N1Nb1
_pd_phase_name Cr1N1Nb1
_cell_length_a  3.0329883294
_cell_length_b  3.0329883294
_cell_length_c  7.4533261850
_cell_angle_alpha  90.0000000000
_cell_angle_beta  90.0000000000
_cell_angle_gamma  90.0000000000
_symmetry_space_group_name_H-M  'P1'
_symmetry_Int_Tables_Number  1
loop_
_symmetry_equiv_pos_site_id
_symmetry_equiv_pos_as_xyz
  1  x,y,z
loop_
 _atom_site_label
 _atom_site_occupancy
 _atom_site_fract_x
 _atom_site_fract_y
 _atom_site_fract_z
 _atom_site_thermal_displace_type
 _atom_site_B_iso_or_equiv
 _atom_site_type_symbol
Cr1 1.0000000000 0.0000000000 0.0000000000 0.7582397330  Biso 1.0 Cr
Cr2 1.0000000000 0.5000000000 0.5000000000 0.5886140423  Biso 1.0 Cr
N3 1.0000000000 0.0000000000 0.0000000000 0.0391414563  Biso 1.0 N
N4 1.0000000000 0.5000000000 0.5000000000 0.3074441626  Biso 1.0 N
Nb5 1.0000000000 0.5000000000 0.5000000000 0.9955319631  Biso 1.0 Nb
Nb6 1.0000000000 0.0000000000 0.0000000000 0.3510286428  Biso 1.0 Nb
