# AFLOW.org Repositories
# Cr1O4Tb1   [BCT,BCT1,tI24] (STD_PRIM doi
data_Cr1O4Tb1
_pd_phase_name Cr1O4Tb1
_cell_length_a  6.0140324346
_cell_length_b  6.0140324346
_cell_length_c  6.0140324346
_cell_angle_alpha  105.9489845879
_cell_angle_beta  105.9489845879
_cell_angle_gamma  116.7717438893
_symmetry_space_group_name_H-M  'P1'
_symmetry_Int_Tables_Number  1
loop_
_symmetry_equiv_pos_site_id
_symmetry_equiv_pos_as_xyz
  1  x,y,z
loop_
 _atom_site_label
 _atom_site_occupancy
 _atom_site_fract_x
 _atom_site_fract_y
 _atom_site_fract_z
 _atom_site_thermal_displace_type
 _atom_site_B_iso_or_equiv
 _atom_site_type_symbol
Cr1 1.0000000000 0.3750000000 0.6250000000 0.7500000000  Biso 1.0 Cr
Cr2 1.0000000000 0.6250000000 0.3750000000 0.2500000000  Biso 1.0 Cr
O3 1.0000000000 0.3651909656 0.7988635349 0.5663274307  Biso 1.0 O
O4 1.0000000000 0.7325361042 0.7988635349 0.9336725693  Biso 1.0 O
O5 1.0000000000 0.7988635349 0.3651909656 0.0663274307  Biso 1.0 O
O6 1.0000000000 0.7988635349 0.7325361042 0.4336725693  Biso 1.0 O
O7 1.0000000000 0.2674638958 0.2011364651 0.0663274307  Biso 1.0 O
O8 1.0000000000 0.6348090344 0.2011364651 0.4336725693  Biso 1.0 O
O9 1.0000000000 0.2011364651 0.6348090344 0.9336725693  Biso 1.0 O
O10 1.0000000000 0.2011364651 0.2674638958 0.5663274307  Biso 1.0 O
Tb11 1.0000000000 0.1250000000 0.8750000000 0.2500000000  Biso 1.0 Tb
Tb12 1.0000000000 0.8750000000 0.1250000000 0.7500000000  Biso 1.0 Tb
