# AFLOW.org Repositories
# Cr1P1   [ORC,ORC,oP8] (STD_PRIM doi:10.1
data_Cr1P1
_pd_phase_name Cr1P1
_cell_length_a  3.5123786848
_cell_length_b  5.9473955659
_cell_length_c  6.0802639800
_cell_angle_alpha  90.0000000000
_cell_angle_beta  90.0000000000
_cell_angle_gamma  90.0000000000
_symmetry_space_group_name_H-M  'P1'
_symmetry_Int_Tables_Number  1
loop_
_symmetry_equiv_pos_site_id
_symmetry_equiv_pos_as_xyz
  1  x,y,z
loop_
 _atom_site_label
 _atom_site_occupancy
 _atom_site_fract_x
 _atom_site_fract_y
 _atom_site_fract_z
 _atom_site_thermal_displace_type
 _atom_site_B_iso_or_equiv
 _atom_site_type_symbol
Cr1 1.0000000000 0.2500000000 0.0010306379 0.7546000304  Biso 1.0 Cr
Cr2 1.0000000000 0.7500000000 0.4989693621 0.2546000304  Biso 1.0 Cr
Cr3 1.0000000000 0.7500000000 0.9989693621 0.2453999696  Biso 1.0 Cr
Cr4 1.0000000000 0.2500000000 0.5010306379 0.7453999696  Biso 1.0 Cr
P5 1.0000000000 0.2500000000 0.2449426513 0.4165798538  Biso 1.0 P
P6 1.0000000000 0.7500000000 0.2550573487 0.9165798538  Biso 1.0 P
P7 1.0000000000 0.7500000000 0.7550573487 0.5834201462  Biso 1.0 P
P8 1.0000000000 0.2500000000 0.7449426513 0.0834201462  Biso 1.0 P
