# AFLOW.org Repositories
# Cs1In3   [BCT,BCT2,tI24] (STD_PRIM doi:1
data_Cs1In3
_pd_phase_name Cs1In3
_cell_length_a  9.9480308791
_cell_length_b  9.9480308791
_cell_length_c  9.9480308791
_cell_angle_alpha  137.6268788406
_cell_angle_beta  137.6268788406
_cell_angle_gamma  61.4749340831
_symmetry_space_group_name_H-M  'P1'
_symmetry_Int_Tables_Number  1
loop_
_symmetry_equiv_pos_site_id
_symmetry_equiv_pos_as_xyz
  1  x,y,z
loop_
 _atom_site_label
 _atom_site_occupancy
 _atom_site_fract_x
 _atom_site_fract_y
 _atom_site_fract_z
 _atom_site_thermal_displace_type
 _atom_site_B_iso_or_equiv
 _atom_site_type_symbol
Cs1 1.0000000000 0.0000000000 0.0000000000 0.0000000000  Biso 1.0 Cs
Cs2 1.0000000000 0.8722825004 0.3722825004 0.5000000000  Biso 1.0 Cs
Cs3 1.0000000000 0.6277174996 0.1277174996 0.5000000000  Biso 1.0 Cs
In4 1.0000000000 0.5000000000 0.5000000000 0.0000000000  Biso 1.0 In
In5 1.0000000000 0.3912609353 0.0888250920 0.6975641567  Biso 1.0 In
In6 1.0000000000 0.3912609353 0.6936967787 0.3024358433  Biso 1.0 In
In7 1.0000000000 0.3063032213 0.6087390647 0.6975641567  Biso 1.0 In
In8 1.0000000000 0.9111749080 0.6087390647 0.3024358433  Biso 1.0 In
In9 1.0000000000 0.2203284751 0.0133797415 0.7930512665  Biso 1.0 In
In10 1.0000000000 0.2203284751 0.4272772086 0.2069487335  Biso 1.0 In
In11 1.0000000000 0.5727227914 0.7796715249 0.7930512665  Biso 1.0 In
In12 1.0000000000 0.9866202585 0.7796715249 0.2069487335  Biso 1.0 In
