# AFLOW.org Repositories
# Cs3O3Sb1   [CUB,CUB,cP28] (STD_PRIM doi:
data_Cs3O3Sb1
_pd_phase_name Cs3O3Sb1
_cell_length_a  9.3659058615
_cell_length_b  9.3659058615
_cell_length_c  9.3659058615
_cell_angle_alpha  90.0000000000
_cell_angle_beta  90.0000000000
_cell_angle_gamma  90.0000000000
_symmetry_space_group_name_H-M  'P1'
_symmetry_Int_Tables_Number  1
loop_
_symmetry_equiv_pos_site_id
_symmetry_equiv_pos_as_xyz
  1  x,y,z
loop_
 _atom_site_label
 _atom_site_occupancy
 _atom_site_fract_x
 _atom_site_fract_y
 _atom_site_fract_z
 _atom_site_thermal_displace_type
 _atom_site_B_iso_or_equiv
 _atom_site_type_symbol
Cs1 1.0000000000 0.2230333158 0.2230333158 0.7769666842  Biso 1.0 Cs
Cs2 1.0000000000 0.2769666842 0.7769666842 0.2769666842  Biso 1.0 Cs
Cs3 1.0000000000 0.7769666842 0.7230333158 0.7230333158  Biso 1.0 Cs
Cs4 1.0000000000 0.7230333158 0.2769666842 0.2230333158  Biso 1.0 Cs
Cs5 1.0000000000 0.7270314142 0.7270314142 0.2729685858  Biso 1.0 Cs
Cs6 1.0000000000 0.7729685858 0.2729685858 0.7729685858  Biso 1.0 Cs
Cs7 1.0000000000 0.2729685858 0.2270314142 0.2270314142  Biso 1.0 Cs
Cs8 1.0000000000 0.2270314142 0.7729685858 0.7270314142  Biso 1.0 Cs
Cs9 1.0000000000 0.9869720409 0.9869720409 0.0130279591  Biso 1.0 Cs
Cs10 1.0000000000 0.5130279591 0.0130279591 0.5130279591  Biso 1.0 Cs
Cs11 1.0000000000 0.0130279591 0.4869720409 0.4869720409  Biso 1.0 Cs
Cs12 1.0000000000 0.4869720409 0.5130279591 0.9869720409  Biso 1.0 Cs
O13 1.0000000000 0.9958718979 0.7937989964 0.4617045909  Biso 1.0 O
O14 1.0000000000 0.5041281021 0.2062010036 0.9617045909  Biso 1.0 O
O15 1.0000000000 0.0041281021 0.2937989964 0.0382954091  Biso 1.0 O
O16 1.0000000000 0.4958718979 0.7062010036 0.5382954091  Biso 1.0 O
O17 1.0000000000 0.5382954091 0.9958718979 0.2062010036  Biso 1.0 O
O18 1.0000000000 0.0382954091 0.5041281021 0.7937989964  Biso 1.0 O
O19 1.0000000000 0.9617045909 0.0041281021 0.7062010036  Biso 1.0 O
O20 1.0000000000 0.4617045909 0.4958718979 0.2937989964  Biso 1.0 O
O21 1.0000000000 0.7937989964 0.5382954091 0.0041281021  Biso 1.0 O
O22 1.0000000000 0.2062010036 0.0382954091 0.4958718979  Biso 1.0 O
O23 1.0000000000 0.2937989964 0.9617045909 0.9958718979  Biso 1.0 O
O24 1.0000000000 0.7062010036 0.4617045909 0.5041281021  Biso 1.0 O
Sb25 1.0000000000 0.4989885827 0.4989885827 0.5010114173  Biso 1.0 Sb
Sb26 1.0000000000 0.0010114173 0.5010114173 0.0010114173  Biso 1.0 Sb
Sb27 1.0000000000 0.5010114173 0.9989885827 0.9989885827  Biso 1.0 Sb
Sb28 1.0000000000 0.9989885827 0.0010114173 0.4989885827  Biso 1.0 Sb
