# AFLOW.org Repositories
# Cu6O8Pb1   [FCC,FCC,cF60] (STD_PRIM doi:
data_Cu6O8Pb1
_pd_phase_name Cu6O8Pb1
_cell_length_a  6.6273007155
_cell_length_b  6.6273007155
_cell_length_c  6.6273007155
_cell_angle_alpha  60.0000000000
_cell_angle_beta  60.0000000000
_cell_angle_gamma  60.0000000000
_symmetry_space_group_name_H-M  'P1'
_symmetry_Int_Tables_Number  1
loop_
_symmetry_equiv_pos_site_id
_symmetry_equiv_pos_as_xyz
  1  x,y,z
loop_
 _atom_site_label
 _atom_site_occupancy
 _atom_site_fract_x
 _atom_site_fract_y
 _atom_site_fract_z
 _atom_site_thermal_displace_type
 _atom_site_B_iso_or_equiv
 _atom_site_type_symbol
Cu1 1.0000000000 0.5000000000 0.0000000000 0.5000000000  Biso 1.0 Cu
Cu2 1.0000000000 0.0000000000 0.5000000000 0.0000000000  Biso 1.0 Cu
Cu3 1.0000000000 0.0000000000 0.5000000000 0.5000000000  Biso 1.0 Cu
Cu4 1.0000000000 0.5000000000 0.0000000000 0.0000000000  Biso 1.0 Cu
Cu5 1.0000000000 0.0000000000 0.0000000000 0.5000000000  Biso 1.0 Cu
Cu6 1.0000000000 0.5000000000 0.5000000000 0.0000000000  Biso 1.0 Cu
O7 1.0000000000 0.8578498922 0.8578498922 0.4264503234  Biso 1.0 O
O8 1.0000000000 0.8578498922 0.8578498922 0.8578498922  Biso 1.0 O
O9 1.0000000000 0.8578498922 0.4264503234 0.8578498922  Biso 1.0 O
O10 1.0000000000 0.4264503234 0.8578498922 0.8578498922  Biso 1.0 O
O11 1.0000000000 0.1421501078 0.1421501078 0.1421501078  Biso 1.0 O
O12 1.0000000000 0.1421501078 0.1421501078 0.5735496766  Biso 1.0 O
O13 1.0000000000 0.1421501078 0.5735496766 0.1421501078  Biso 1.0 O
O14 1.0000000000 0.5735496766 0.1421501078 0.1421501078  Biso 1.0 O
Pb15 1.0000000000 0.0000000000 0.0000000000 0.0000000000  Biso 1.0 Pb
