# AFLOW.org Repositories
# Cu7Zn16Zr6   [FCC,FCC,cF116] (STD_PRIM d
data_Cu7Zn16Zr6
_pd_phase_name Cu7Zn16Zr6
_cell_length_a  8.5320701321
_cell_length_b  8.5320701321
_cell_length_c  8.5320701321
_cell_angle_alpha  60.0000000000
_cell_angle_beta  60.0000000000
_cell_angle_gamma  60.0000000000
_symmetry_space_group_name_H-M  'P1'
_symmetry_Int_Tables_Number  1
loop_
_symmetry_equiv_pos_site_id
_symmetry_equiv_pos_as_xyz
  1  x,y,z
loop_
 _atom_site_label
 _atom_site_occupancy
 _atom_site_fract_x
 _atom_site_fract_y
 _atom_site_fract_z
 _atom_site_thermal_displace_type
 _atom_site_B_iso_or_equiv
 _atom_site_type_symbol
Cu1 1.0000000000 0.0000000000 0.0000000000 0.0000000000  Biso 1.0 Cu
Cu2 1.0000000000 0.5000000000 0.0000000000 0.0000000000  Biso 1.0 Cu
Cu3 1.0000000000 0.0000000000 0.5000000000 0.5000000000  Biso 1.0 Cu
Cu4 1.0000000000 0.0000000000 0.5000000000 0.0000000000  Biso 1.0 Cu
Cu5 1.0000000000 0.5000000000 0.0000000000 0.5000000000  Biso 1.0 Cu
Cu6 1.0000000000 0.0000000000 0.0000000000 0.5000000000  Biso 1.0 Cu
Cu7 1.0000000000 0.5000000000 0.5000000000 0.0000000000  Biso 1.0 Cu
Zn8 1.0000000000 0.1193832540 0.1193832540 0.1193832540  Biso 1.0 Zn
Zn9 1.0000000000 0.1193832540 0.1193832540 0.6418502379  Biso 1.0 Zn
Zn10 1.0000000000 0.1193832540 0.6418502379 0.1193832540  Biso 1.0 Zn
Zn11 1.0000000000 0.6418502379 0.1193832540 0.1193832540  Biso 1.0 Zn
Zn12 1.0000000000 0.8806167460 0.8806167460 0.3581497621  Biso 1.0 Zn
Zn13 1.0000000000 0.8806167460 0.8806167460 0.8806167460  Biso 1.0 Zn
Zn14 1.0000000000 0.8806167460 0.3581497621 0.8806167460  Biso 1.0 Zn
Zn15 1.0000000000 0.3581497621 0.8806167460 0.8806167460  Biso 1.0 Zn
Zn16 1.0000000000 0.3314821217 0.3314821217 0.3314821217  Biso 1.0 Zn
Zn17 1.0000000000 0.3314821217 0.3314821217 0.0055536350  Biso 1.0 Zn
Zn18 1.0000000000 0.3314821217 0.0055536350 0.3314821217  Biso 1.0 Zn
Zn19 1.0000000000 0.0055536350 0.3314821217 0.3314821217  Biso 1.0 Zn
Zn20 1.0000000000 0.6685178783 0.6685178783 0.9944463650  Biso 1.0 Zn
Zn21 1.0000000000 0.6685178783 0.6685178783 0.6685178783  Biso 1.0 Zn
Zn22 1.0000000000 0.6685178783 0.9944463650 0.6685178783  Biso 1.0 Zn
Zn23 1.0000000000 0.9944463650 0.6685178783 0.6685178783  Biso 1.0 Zn
Zr24 1.0000000000 0.6914900322 0.3085099678 0.3085099678  Biso 1.0 Zr
Zr25 1.0000000000 0.3085099678 0.6914900322 0.6914900322  Biso 1.0 Zr
Zr26 1.0000000000 0.3085099678 0.6914900322 0.3085099678  Biso 1.0 Zr
Zr27 1.0000000000 0.6914900322 0.3085099678 0.6914900322  Biso 1.0 Zr
Zr28 1.0000000000 0.3085099678 0.3085099678 0.6914900322  Biso 1.0 Zr
Zr29 1.0000000000 0.6914900322 0.6914900322 0.3085099678  Biso 1.0 Zr
