# AFLOW.org Repositories
# Dy1In1Ni1   [HEX,HEX,hP9] (STD_PRIM doi:
data_Dy1In1Ni1
_pd_phase_name Dy1In1Ni1
_cell_length_a  7.4142089840
_cell_length_b  7.4142089840
_cell_length_c  3.7743715943
_cell_angle_alpha  90.0000000000
_cell_angle_beta  90.0000000000
_cell_angle_gamma  120.0000000000
_symmetry_space_group_name_H-M  'P1'
_symmetry_Int_Tables_Number  1
loop_
_symmetry_equiv_pos_site_id
_symmetry_equiv_pos_as_xyz
  1  x,y,z
loop_
 _atom_site_label
 _atom_site_occupancy
 _atom_site_fract_x
 _atom_site_fract_y
 _atom_site_fract_z
 _atom_site_thermal_displace_type
 _atom_site_B_iso_or_equiv
 _atom_site_type_symbol
Dy1 1.0000000000 0.0000000000 0.4113293111 0.5000000000  Biso 1.0 Dy
Dy2 1.0000000000 0.5886706889 0.5886706889 0.5000000000  Biso 1.0 Dy
Dy3 1.0000000000 0.4113251827 0.0000000000 0.5000000000  Biso 1.0 Dy
In4 1.0000000000 0.2522456191 0.2522456191 0.0000000000  Biso 1.0 In
In5 1.0000000000 0.7477550456 0.0000000000 0.0000000000  Biso 1.0 In
In6 1.0000000000 0.0000000000 0.7477543809 0.0000000000  Biso 1.0 In
Ni7 1.0000000000 0.0000000000 0.0000000000 0.5000000000  Biso 1.0 Ni
Ni8 1.0000000000 0.6666917831 0.3333824693 0.0000000000  Biso 1.0 Ni
Ni9 1.0000000000 0.3333093137 0.6666175307 0.0000000000  Biso 1.0 Ni
