# AFLOW.org Repositories
# Dy1Ni1P1   [HEX,HEX,hP12] (STD_PRIM doi:
data_Dy1Ni1P1
_pd_phase_name Dy1Ni1P1
_cell_length_a  3.9047057269
_cell_length_b  3.9047057269
_cell_length_c  15.1790700309
_cell_angle_alpha  90.0000000000
_cell_angle_beta  90.0000000000
_cell_angle_gamma  120.0000000000
_symmetry_space_group_name_H-M  'P1'
_symmetry_Int_Tables_Number  1
loop_
_symmetry_equiv_pos_site_id
_symmetry_equiv_pos_as_xyz
  1  x,y,z
loop_
 _atom_site_label
 _atom_site_occupancy
 _atom_site_fract_x
 _atom_site_fract_y
 _atom_site_fract_z
 _atom_site_thermal_displace_type
 _atom_site_B_iso_or_equiv
 _atom_site_type_symbol
Dy1 1.0000000000 0.0000000000 0.0000000000 0.0000000000  Biso 1.0 Dy
Dy2 1.0000000000 0.0000000000 0.0000000000 0.5000000000  Biso 1.0 Dy
Dy3 1.0000000000 0.0000000000 0.0000000000 0.2500000000  Biso 1.0 Dy
Dy4 1.0000000000 0.0000000000 0.0000000000 0.7500000000  Biso 1.0 Dy
Ni5 1.0000000000 0.3333392369 0.6666607631 0.1275491478  Biso 1.0 Ni
Ni6 1.0000000000 0.6666607631 0.3333392369 0.6275491478  Biso 1.0 Ni
Ni7 1.0000000000 0.6666607631 0.3333392369 0.8724508522  Biso 1.0 Ni
Ni8 1.0000000000 0.3333392369 0.6666607631 0.3724508522  Biso 1.0 Ni
P9 1.0000000000 0.3333424603 0.6666575397 0.6232956434  Biso 1.0 P
P10 1.0000000000 0.6666575397 0.3333424603 0.1232956434  Biso 1.0 P
P11 1.0000000000 0.6666575397 0.3333424603 0.3767043566  Biso 1.0 P
P12 1.0000000000 0.3333424603 0.6666575397 0.8767043566  Biso 1.0 P
