# AFLOW.org Repositories
# Dy1Re2   [HEX,HEX,hP12] (STD_PRIM doi:10
data_Dy1Re2
_pd_phase_name Dy1Re2
_cell_length_a  5.4385836976
_cell_length_b  5.4385836976
_cell_length_c  8.8446495788
_cell_angle_alpha  90.0000000000
_cell_angle_beta  90.0000000000
_cell_angle_gamma  120.0000000000
_symmetry_space_group_name_H-M  'P1'
_symmetry_Int_Tables_Number  1
loop_
_symmetry_equiv_pos_site_id
_symmetry_equiv_pos_as_xyz
  1  x,y,z
loop_
 _atom_site_label
 _atom_site_occupancy
 _atom_site_fract_x
 _atom_site_fract_y
 _atom_site_fract_z
 _atom_site_thermal_displace_type
 _atom_site_B_iso_or_equiv
 _atom_site_type_symbol
Dy1 1.0000000000 0.6666727272 0.3333454545 0.0618302617  Biso 1.0 Dy
Dy2 1.0000000000 0.3333272728 0.6666545455 0.5618302617  Biso 1.0 Dy
Dy3 1.0000000000 0.3333272728 0.6666545455 0.9381697383  Biso 1.0 Dy
Dy4 1.0000000000 0.6666727272 0.3333454545 0.4381697383  Biso 1.0 Dy
Re5 1.0000000000 0.0000000000 0.0000000000 0.0000000000  Biso 1.0 Re
Re6 1.0000000000 0.0000000000 0.0000000000 0.5000000000  Biso 1.0 Re
Re7 1.0000000000 0.6585095455 0.8292624273 0.2500000000  Biso 1.0 Re
Re8 1.0000000000 0.1707528817 0.8292624273 0.2500000000  Biso 1.0 Re
Re9 1.0000000000 0.1707463705 0.3414927410 0.2500000000  Biso 1.0 Re
Re10 1.0000000000 0.3414904545 0.1707375727 0.7500000000  Biso 1.0 Re
Re11 1.0000000000 0.8292471183 0.1707375727 0.7500000000  Biso 1.0 Re
Re12 1.0000000000 0.8292536295 0.6585072590 0.7500000000  Biso 1.0 Re
