# AFLOW.org Repositories
# Dy2Rh3Sn5   [ORCC,ORCC,oS40] (STD_PRIM d
data_Dy2Rh3Sn5
_pd_phase_name Dy2Rh3Sn5
_cell_length_a  13.5977006896
_cell_length_b  13.5977006896
_cell_length_c  7.2695890446
_cell_angle_alpha  90.0000000000
_cell_angle_beta  90.0000000000
_cell_angle_gamma  161.1254509042
_symmetry_space_group_name_H-M  'P1'
_symmetry_Int_Tables_Number  1
loop_
_symmetry_equiv_pos_site_id
_symmetry_equiv_pos_as_xyz
  1  x,y,z
loop_
 _atom_site_label
 _atom_site_occupancy
 _atom_site_fract_x
 _atom_site_fract_y
 _atom_site_fract_z
 _atom_site_thermal_displace_type
 _atom_site_B_iso_or_equiv
 _atom_site_type_symbol
Dy1 1.0000000000 0.8291119964 0.1708880036 0.2402866439  Biso 1.0 Dy
Dy2 1.0000000000 0.1708880036 0.8291119964 0.7402866439  Biso 1.0 Dy
Dy3 1.0000000000 0.5251588650 0.4748411350 0.2640858285  Biso 1.0 Dy
Dy4 1.0000000000 0.4748411350 0.5251588650 0.7640858285  Biso 1.0 Dy
Rh5 1.0000000000 0.9503606500 0.0496393500 0.4857916104  Biso 1.0 Rh
Rh6 1.0000000000 0.0496393500 0.9503606500 0.9857916104  Biso 1.0 Rh
Rh7 1.0000000000 0.2215361688 0.7784638312 0.2360658783  Biso 1.0 Rh
Rh8 1.0000000000 0.7784638312 0.2215361688 0.7360658783  Biso 1.0 Rh
Rh9 1.0000000000 0.6055217232 0.3944782768 0.5161163806  Biso 1.0 Rh
Rh10 1.0000000000 0.3944782768 0.6055217232 0.0161163806  Biso 1.0 Rh
Sn11 1.0000000000 0.1200183021 0.8799816979 0.2658824682  Biso 1.0 Sn
Sn12 1.0000000000 0.8799816979 0.1200183021 0.7658824682  Biso 1.0 Sn
Sn13 1.0000000000 0.2952770922 0.7047229078 0.9527170392  Biso 1.0 Sn
Sn14 1.0000000000 0.7047229078 0.2952770922 0.4527170392  Biso 1.0 Sn
Sn15 1.0000000000 0.4039219273 0.5960780727 0.3891275148  Biso 1.0 Sn
Sn16 1.0000000000 0.5960780727 0.4039219273 0.8891275148  Biso 1.0 Sn
Sn17 1.0000000000 0.0468529882 0.9531470118 0.6015938454  Biso 1.0 Sn
Sn18 1.0000000000 0.9531470118 0.0468529882 0.1015938454  Biso 1.0 Sn
Sn19 1.0000000000 0.7095071417 0.2904928583 0.0203327907  Biso 1.0 Sn
Sn20 1.0000000000 0.2904928583 0.7095071417 0.5203327907  Biso 1.0 Sn
