# AFLOW.org Repositories
# Dy2Se3   [ORC,ORC,oP20] (STD_PRIM doi:10
data_Dy2Se3
_pd_phase_name Dy2Se3
_cell_length_a  4.0286163393
_cell_length_b  10.9844123331
_cell_length_c  11.1682654487
_cell_angle_alpha  90.0000000000
_cell_angle_beta  90.0000000000
_cell_angle_gamma  90.0000000000
_symmetry_space_group_name_H-M  'P1'
_symmetry_Int_Tables_Number  1
loop_
_symmetry_equiv_pos_site_id
_symmetry_equiv_pos_as_xyz
  1  x,y,z
loop_
 _atom_site_label
 _atom_site_occupancy
 _atom_site_fract_x
 _atom_site_fract_y
 _atom_site_fract_z
 _atom_site_thermal_displace_type
 _atom_site_B_iso_or_equiv
 _atom_site_type_symbol
Dy1 1.0000000000 0.7500000000 0.6875711797 0.9872698259  Biso 1.0 Dy
Dy2 1.0000000000 0.2500000000 0.1875711797 0.5127301741  Biso 1.0 Dy
Dy3 1.0000000000 0.2500000000 0.3124288203 0.0127301741  Biso 1.0 Dy
Dy4 1.0000000000 0.7500000000 0.8124288203 0.4872698259  Biso 1.0 Dy
Dy5 1.0000000000 0.7500000000 0.4976930598 0.3062708730  Biso 1.0 Dy
Dy6 1.0000000000 0.2500000000 0.9976930598 0.1937291270  Biso 1.0 Dy
Dy7 1.0000000000 0.2500000000 0.5023069402 0.6937291270  Biso 1.0 Dy
Dy8 1.0000000000 0.7500000000 0.0023069402 0.8062708730  Biso 1.0 Dy
Se9 1.0000000000 0.7500000000 0.1254062424 0.0448164717  Biso 1.0 Se
Se10 1.0000000000 0.2500000000 0.6254062424 0.4551835283  Biso 1.0 Se
Se11 1.0000000000 0.2500000000 0.8745937576 0.9551835283  Biso 1.0 Se
Se12 1.0000000000 0.7500000000 0.3745937576 0.5448164717  Biso 1.0 Se
Se13 1.0000000000 0.7500000000 0.4446858897 0.8810115803  Biso 1.0 Se
Se14 1.0000000000 0.2500000000 0.9446858897 0.6189884197  Biso 1.0 Se
Se15 1.0000000000 0.2500000000 0.5553141103 0.1189884197  Biso 1.0 Se
Se16 1.0000000000 0.7500000000 0.0553141103 0.3810115803  Biso 1.0 Se
Se17 1.0000000000 0.7500000000 0.8040225149 0.2263092320  Biso 1.0 Se
Se18 1.0000000000 0.2500000000 0.3040225149 0.2736907680  Biso 1.0 Se
Se19 1.0000000000 0.2500000000 0.1959774851 0.7736907680  Biso 1.0 Se
Se20 1.0000000000 0.7500000000 0.6959774851 0.7263092320  Biso 1.0 Se
