# AFLOW.org Repositories
# Dy2S3   [ORC,ORC,oP20] (STD_PRIM doi:10.
data_Dy2S3
_pd_phase_name Dy2S3
_cell_length_a  3.8882834642
_cell_length_b  7.3076911824
_cell_length_c  15.1942076098
_cell_angle_alpha  90.0000000000
_cell_angle_beta  90.0000000000
_cell_angle_gamma  90.0000000000
_symmetry_space_group_name_H-M  'P1'
_symmetry_Int_Tables_Number  1
loop_
_symmetry_equiv_pos_site_id
_symmetry_equiv_pos_as_xyz
  1  x,y,z
loop_
 _atom_site_label
 _atom_site_occupancy
 _atom_site_fract_x
 _atom_site_fract_y
 _atom_site_fract_z
 _atom_site_thermal_displace_type
 _atom_site_B_iso_or_equiv
 _atom_site_type_symbol
Dy1 1.0000000000 0.7500000000 0.3587252105 0.2956009131  Biso 1.0 Dy
Dy2 1.0000000000 0.2500000000 0.1412747895 0.7956009131  Biso 1.0 Dy
Dy3 1.0000000000 0.2500000000 0.6412747895 0.7043990869  Biso 1.0 Dy
Dy4 1.0000000000 0.7500000000 0.8587252105 0.2043990869  Biso 1.0 Dy
Dy5 1.0000000000 0.2500000000 0.2666468725 0.0428171566  Biso 1.0 Dy
Dy6 1.0000000000 0.7500000000 0.2333531275 0.5428171566  Biso 1.0 Dy
Dy7 1.0000000000 0.7500000000 0.7333531275 0.9571828434  Biso 1.0 Dy
Dy8 1.0000000000 0.2500000000 0.7666468725 0.4571828434  Biso 1.0 Dy
S9 1.0000000000 0.7500000000 0.4902970817 0.1079339775  Biso 1.0 S
S10 1.0000000000 0.2500000000 0.0097029183 0.6079339775  Biso 1.0 S
S11 1.0000000000 0.2500000000 0.5097029183 0.8920660225  Biso 1.0 S
S12 1.0000000000 0.7500000000 0.9902970817 0.3920660225  Biso 1.0 S
S13 1.0000000000 0.7500000000 0.1234030983 0.9324698812  Biso 1.0 S
S14 1.0000000000 0.2500000000 0.3765969017 0.4324698812  Biso 1.0 S
S15 1.0000000000 0.2500000000 0.8765969017 0.0675301188  Biso 1.0 S
S16 1.0000000000 0.7500000000 0.6234030983 0.5675301188  Biso 1.0 S
S17 1.0000000000 0.2500000000 0.1501006786 0.2182599539  Biso 1.0 S
S18 1.0000000000 0.7500000000 0.3498993214 0.7182599539  Biso 1.0 S
S19 1.0000000000 0.7500000000 0.8498993214 0.7817400461  Biso 1.0 S
S20 1.0000000000 0.2500000000 0.6501006786 0.2817400461  Biso 1.0 S
