# AFLOW.org Repositories
# Dy3Ru1   [ORC,ORC,oP16] (STD_PRIM doi:10
data_Dy3Ru1
_pd_phase_name Dy3Ru1
_cell_length_a  6.3095778770
_cell_length_b  7.2609319858
_cell_length_c  9.2025008966
_cell_angle_alpha  90.0000000000
_cell_angle_beta  90.0000000000
_cell_angle_gamma  90.0000000000
_symmetry_space_group_name_H-M  'P1'
_symmetry_Int_Tables_Number  1
loop_
_symmetry_equiv_pos_site_id
_symmetry_equiv_pos_as_xyz
  1  x,y,z
loop_
 _atom_site_label
 _atom_site_occupancy
 _atom_site_fract_x
 _atom_site_fract_y
 _atom_site_fract_z
 _atom_site_thermal_displace_type
 _atom_site_B_iso_or_equiv
 _atom_site_type_symbol
Dy1 1.0000000000 0.8306476076 0.1769283476 0.9342390921  Biso 1.0 Dy
Dy2 1.0000000000 0.3306476076 0.3230716524 0.0657609079  Biso 1.0 Dy
Dy3 1.0000000000 0.1693523924 0.8230716524 0.4342390921  Biso 1.0 Dy
Dy4 1.0000000000 0.6693523924 0.6769283476 0.5657609079  Biso 1.0 Dy
Dy5 1.0000000000 0.1693523924 0.8230716524 0.0657609079  Biso 1.0 Dy
Dy6 1.0000000000 0.6693523924 0.6769283476 0.9342390921  Biso 1.0 Dy
Dy7 1.0000000000 0.8306476076 0.1769283476 0.5657609079  Biso 1.0 Dy
Dy8 1.0000000000 0.3306476076 0.3230716524 0.4342390921  Biso 1.0 Dy
Dy9 1.0000000000 0.3614930517 0.0419254892 0.7500000000  Biso 1.0 Dy
Dy10 1.0000000000 0.8614930517 0.4580745108 0.2500000000  Biso 1.0 Dy
Dy11 1.0000000000 0.6385069483 0.9580745108 0.2500000000  Biso 1.0 Dy
Dy12 1.0000000000 0.1385069483 0.5419254892 0.7500000000  Biso 1.0 Dy
Ru13 1.0000000000 0.5400667730 0.3842214750 0.7500000000  Biso 1.0 Ru
Ru14 1.0000000000 0.0400667730 0.1157785250 0.2500000000  Biso 1.0 Ru
Ru15 1.0000000000 0.4599332270 0.6157785250 0.2500000000  Biso 1.0 Ru
Ru16 1.0000000000 0.9599332270 0.8842214750 0.7500000000  Biso 1.0 Ru
