# AFLOW.org Repositories
# Er1Ga1   [ORCC,ORCC,oS8] (STD_PRIM doi:1
data_Er1Ga1
_pd_phase_name Er1Ga1
_cell_length_a  5.7993645523
_cell_length_b  5.7993645523
_cell_length_c  4.0211851938
_cell_angle_alpha  90.0000000000
_cell_angle_beta  90.0000000000
_cell_angle_gamma  136.4382264278
_symmetry_space_group_name_H-M  'P1'
_symmetry_Int_Tables_Number  1
loop_
_symmetry_equiv_pos_site_id
_symmetry_equiv_pos_as_xyz
  1  x,y,z
loop_
 _atom_site_label
 _atom_site_occupancy
 _atom_site_fract_x
 _atom_site_fract_y
 _atom_site_fract_z
 _atom_site_thermal_displace_type
 _atom_site_B_iso_or_equiv
 _atom_site_type_symbol
Er1 1.0000000000 0.8609315635 0.1390684365 0.7500000000  Biso 1.0 Er
Er2 1.0000000000 0.1390684365 0.8609315635 0.2500000000  Biso 1.0 Er
Ga3 1.0000000000 0.5784699707 0.4215300293 0.7500000000  Biso 1.0 Ga
Ga4 1.0000000000 0.4215300293 0.5784699707 0.2500000000  Biso 1.0 Ga
