# AFLOW.org Repositories
# Er1Pd1Sn1   [ORC,ORC,oP12] (STD_PRIM doi
data_Er1Pd1Sn1
_pd_phase_name Er1Pd1Sn1
_cell_length_a  4.6616122700
_cell_length_b  7.1659788397
_cell_length_c  7.9824230366
_cell_angle_alpha  90.0000000000
_cell_angle_beta  90.0000000000
_cell_angle_gamma  90.0000000000
_symmetry_space_group_name_H-M  'P1'
_symmetry_Int_Tables_Number  1
loop_
_symmetry_equiv_pos_site_id
_symmetry_equiv_pos_as_xyz
  1  x,y,z
loop_
 _atom_site_label
 _atom_site_occupancy
 _atom_site_fract_x
 _atom_site_fract_y
 _atom_site_fract_z
 _atom_site_thermal_displace_type
 _atom_site_B_iso_or_equiv
 _atom_site_type_symbol
Er1 1.0000000000 0.2500000000 0.0091814600 0.2931823103  Biso 1.0 Er
Er2 1.0000000000 0.7500000000 0.4908185400 0.7931823103  Biso 1.0 Er
Er3 1.0000000000 0.7500000000 0.9908185400 0.7068176897  Biso 1.0 Er
Er4 1.0000000000 0.2500000000 0.5091814600 0.2068176897  Biso 1.0 Er
Pd5 1.0000000000 0.2500000000 0.2935181443 0.5827409296  Biso 1.0 Pd
Pd6 1.0000000000 0.7500000000 0.2064818557 0.0827409296  Biso 1.0 Pd
Pd7 1.0000000000 0.7500000000 0.7064818557 0.4172590704  Biso 1.0 Pd
Pd8 1.0000000000 0.2500000000 0.7935181443 0.9172590704  Biso 1.0 Pd
Sn9 1.0000000000 0.2500000000 0.1971245766 0.9118168607  Biso 1.0 Sn
Sn10 1.0000000000 0.7500000000 0.3028754234 0.4118168607  Biso 1.0 Sn
Sn11 1.0000000000 0.7500000000 0.8028754234 0.0881831393  Biso 1.0 Sn
Sn12 1.0000000000 0.2500000000 0.6971245766 0.5881831393  Biso 1.0 Sn
