# AFLOW.org Repositories
# Er1Rh5   [HEX,HEX,hP6] (STD_PRIM doi:10.
data_Er1Rh5
_pd_phase_name Er1Rh5
_cell_length_a  5.1658677087
_cell_length_b  5.1658677087
_cell_length_c  4.3327466538
_cell_angle_alpha  90.0000000000
_cell_angle_beta  90.0000000000
_cell_angle_gamma  120.0000000000
_symmetry_space_group_name_H-M  'P1'
_symmetry_Int_Tables_Number  1
loop_
_symmetry_equiv_pos_site_id
_symmetry_equiv_pos_as_xyz
  1  x,y,z
loop_
 _atom_site_label
 _atom_site_occupancy
 _atom_site_fract_x
 _atom_site_fract_y
 _atom_site_fract_z
 _atom_site_thermal_displace_type
 _atom_site_B_iso_or_equiv
 _atom_site_type_symbol
Er1 1.0000000000 0.0000000000 0.0000000000 0.0000000000  Biso 1.0 Er
Rh2 1.0000000000 0.3333733074 0.6666866537 0.0000000000  Biso 1.0 Rh
Rh3 1.0000000000 0.6666266926 0.3333133463 0.0000000000  Biso 1.0 Rh
Rh4 1.0000000000 0.5000000000 0.5000000000 0.5000000000  Biso 1.0 Rh
Rh5 1.0000000000 0.5000000000 0.0000000000 0.5000000000  Biso 1.0 Rh
Rh6 1.0000000000 0.0000000000 0.5000000000 0.5000000000  Biso 1.0 Rh
