# AFLOW.org Repositories
# Er1Si1   [ORCC,ORCC,oS8] (STD_PRIM doi:1
data_Er1Si1
_pd_phase_name Er1Si1
_cell_length_a  5.6279207121
_cell_length_b  5.6279207121
_cell_length_c  3.8048193548
_cell_angle_alpha  90.0000000000
_cell_angle_beta  90.0000000000
_cell_angle_gamma  135.8071415470
_symmetry_space_group_name_H-M  'P1'
_symmetry_Int_Tables_Number  1
loop_
_symmetry_equiv_pos_site_id
_symmetry_equiv_pos_as_xyz
  1  x,y,z
loop_
 _atom_site_label
 _atom_site_occupancy
 _atom_site_fract_x
 _atom_site_fract_y
 _atom_site_fract_z
 _atom_site_thermal_displace_type
 _atom_site_B_iso_or_equiv
 _atom_site_type_symbol
Er1 1.0000000000 0.1401661974 0.8598338026 0.7500000000  Biso 1.0 Er
Er2 1.0000000000 0.8598338026 0.1401661974 0.2500000000  Biso 1.0 Er
Si3 1.0000000000 0.4226156604 0.5773843396 0.7500000000  Biso 1.0 Si
Si4 1.0000000000 0.5773843396 0.4226156604 0.2500000000  Biso 1.0 Si
