# AFLOW.org Repositories
# Er2O3   [BCC,BCC,cI80] (STD_PRIM doi:10.
data_Er2O3
_pd_phase_name Er2O3
_cell_length_a  9.1336866672
_cell_length_b  9.1336866672
_cell_length_c  9.1336866672
_cell_angle_alpha  109.4712206345
_cell_angle_beta  109.4712206345
_cell_angle_gamma  109.4712206345
_symmetry_space_group_name_H-M  'P1'
_symmetry_Int_Tables_Number  1
loop_
_symmetry_equiv_pos_site_id
_symmetry_equiv_pos_as_xyz
  1  x,y,z
loop_
 _atom_site_label
 _atom_site_occupancy
 _atom_site_fract_x
 _atom_site_fract_y
 _atom_site_fract_z
 _atom_site_thermal_displace_type
 _atom_site_B_iso_or_equiv
 _atom_site_type_symbol
Er1 1.0000000000 0.0000000000 0.0000000000 0.5000000000  Biso 1.0 Er
Er2 1.0000000000 0.5000000000 0.5000000000 0.5000000000  Biso 1.0 Er
Er3 1.0000000000 0.0000000000 0.5000000000 0.0000000000  Biso 1.0 Er
Er4 1.0000000000 0.5000000000 0.0000000000 0.0000000000  Biso 1.0 Er
Er5 1.0000000000 0.0330038640 0.2830038640 0.2500000000  Biso 1.0 Er
Er6 1.0000000000 0.4669961360 0.2169961360 0.7500000000  Biso 1.0 Er
Er7 1.0000000000 0.7169961360 0.7500000000 0.9669961360  Biso 1.0 Er
Er8 1.0000000000 0.7830038640 0.2500000000 0.5330038640  Biso 1.0 Er
Er9 1.0000000000 0.2500000000 0.9669961360 0.2169961360  Biso 1.0 Er
Er10 1.0000000000 0.7500000000 0.5330038640 0.2830038640  Biso 1.0 Er
Er11 1.0000000000 0.9669961360 0.7169961360 0.7500000000  Biso 1.0 Er
Er12 1.0000000000 0.5330038640 0.7830038640 0.2500000000  Biso 1.0 Er
Er13 1.0000000000 0.2830038640 0.2500000000 0.0330038640  Biso 1.0 Er
Er14 1.0000000000 0.2169961360 0.7500000000 0.4669961360  Biso 1.0 Er
Er15 1.0000000000 0.7500000000 0.0330038640 0.7830038640  Biso 1.0 Er
Er16 1.0000000000 0.2500000000 0.4669961360 0.7169961360  Biso 1.0 Er
O17 1.0000000000 0.7607723762 0.9887338759 0.5317375111  Biso 1.0 O
O18 1.0000000000 0.7392276238 0.7709651348 0.7279614996  Biso 1.0 O
O19 1.0000000000 0.0430036352 0.5112661241 0.7720385004  Biso 1.0 O
O20 1.0000000000 0.4569963648 0.7290348652 0.9682624889  Biso 1.0 O
O21 1.0000000000 0.0112661241 0.7720385004 0.5430036352  Biso 1.0 O
O22 1.0000000000 0.2290348652 0.9682624889 0.9569963648  Biso 1.0 O
O23 1.0000000000 0.4887338759 0.5317375111 0.2607723762  Biso 1.0 O
O24 1.0000000000 0.2709651348 0.7279614996 0.2392276238  Biso 1.0 O
O25 1.0000000000 0.2279614996 0.2392276238 0.7709651348  Biso 1.0 O
O26 1.0000000000 0.0317375111 0.2607723762 0.9887338759  Biso 1.0 O
O27 1.0000000000 0.4682624889 0.9569963648 0.7290348652  Biso 1.0 O
O28 1.0000000000 0.2720385004 0.5430036352 0.5112661241  Biso 1.0 O
O29 1.0000000000 0.2392276238 0.0112661241 0.4682624889  Biso 1.0 O
O30 1.0000000000 0.2607723762 0.2290348652 0.2720385004  Biso 1.0 O
O31 1.0000000000 0.9569963648 0.4887338759 0.2279614996  Biso 1.0 O
O32 1.0000000000 0.5430036352 0.2709651348 0.0317375111  Biso 1.0 O
O33 1.0000000000 0.9887338759 0.2279614996 0.4569963648  Biso 1.0 O
O34 1.0000000000 0.7709651348 0.0317375111 0.0430036352  Biso 1.0 O
O35 1.0000000000 0.5112661241 0.4682624889 0.7392276238  Biso 1.0 O
O36 1.0000000000 0.7290348652 0.2720385004 0.7607723762  Biso 1.0 O
O37 1.0000000000 0.7720385004 0.7607723762 0.2290348652  Biso 1.0 O
O38 1.0000000000 0.9682624889 0.7392276238 0.0112661241  Biso 1.0 O
O39 1.0000000000 0.5317375111 0.0430036352 0.2709651348  Biso 1.0 O
O40 1.0000000000 0.7279614996 0.4569963648 0.4887338759  Biso 1.0 O
