# AFLOW.org Repositories
# Er3Ge13Rh4   [CUB,CUB,cP40] (STD_PRIM do
data_Er3Ge13Rh4
_pd_phase_name Er3Ge13Rh4
_cell_length_a  8.9851647500
_cell_length_b  8.9851647500
_cell_length_c  8.9851647500
_cell_angle_alpha  90.0000000000
_cell_angle_beta  90.0000000000
_cell_angle_gamma  90.0000000000
_symmetry_space_group_name_H-M  'P1'
_symmetry_Int_Tables_Number  1
loop_
_symmetry_equiv_pos_site_id
_symmetry_equiv_pos_as_xyz
  1  x,y,z
loop_
 _atom_site_label
 _atom_site_occupancy
 _atom_site_fract_x
 _atom_site_fract_y
 _atom_site_fract_z
 _atom_site_thermal_displace_type
 _atom_site_B_iso_or_equiv
 _atom_site_type_symbol
Er1 1.0000000000 0.7500000000 0.0000000000 0.5000000000  Biso 1.0 Er
Er2 1.0000000000 0.2500000000 0.0000000000 0.5000000000  Biso 1.0 Er
Er3 1.0000000000 0.5000000000 0.7500000000 0.0000000000  Biso 1.0 Er
Er4 1.0000000000 0.5000000000 0.2500000000 0.0000000000  Biso 1.0 Er
Er5 1.0000000000 0.0000000000 0.5000000000 0.2500000000  Biso 1.0 Er
Er6 1.0000000000 0.0000000000 0.5000000000 0.7500000000  Biso 1.0 Er
Ge7 1.0000000000 0.0000000000 0.0000000000 0.0000000000  Biso 1.0 Ge
Ge8 1.0000000000 0.5000000000 0.5000000000 0.5000000000  Biso 1.0 Ge
Ge9 1.0000000000 0.0000000000 0.8525962707 0.3105773730  Biso 1.0 Ge
Ge10 1.0000000000 0.0000000000 0.1474037293 0.3105773730  Biso 1.0 Ge
Ge11 1.0000000000 0.0000000000 0.8525962707 0.6894226270  Biso 1.0 Ge
Ge12 1.0000000000 0.0000000000 0.1474037293 0.6894226270  Biso 1.0 Ge
Ge13 1.0000000000 0.6894226270 0.0000000000 0.1474037293  Biso 1.0 Ge
Ge14 1.0000000000 0.6894226270 0.0000000000 0.8525962707  Biso 1.0 Ge
Ge15 1.0000000000 0.3105773730 0.0000000000 0.1474037293  Biso 1.0 Ge
Ge16 1.0000000000 0.3105773730 0.0000000000 0.8525962707  Biso 1.0 Ge
Ge17 1.0000000000 0.8525962707 0.6894226270 0.0000000000  Biso 1.0 Ge
Ge18 1.0000000000 0.1474037293 0.6894226270 0.0000000000  Biso 1.0 Ge
Ge19 1.0000000000 0.8525962707 0.3105773730 0.0000000000  Biso 1.0 Ge
Ge20 1.0000000000 0.1474037293 0.3105773730 0.0000000000  Biso 1.0 Ge
Ge21 1.0000000000 0.3525962707 0.5000000000 0.1894226270  Biso 1.0 Ge
Ge22 1.0000000000 0.6474037293 0.5000000000 0.1894226270  Biso 1.0 Ge
Ge23 1.0000000000 0.3525962707 0.5000000000 0.8105773730  Biso 1.0 Ge
Ge24 1.0000000000 0.6474037293 0.5000000000 0.8105773730  Biso 1.0 Ge
Ge25 1.0000000000 0.5000000000 0.1894226270 0.3525962707  Biso 1.0 Ge
Ge26 1.0000000000 0.5000000000 0.1894226270 0.6474037293  Biso 1.0 Ge
Ge27 1.0000000000 0.5000000000 0.8105773730 0.3525962707  Biso 1.0 Ge
Ge28 1.0000000000 0.5000000000 0.8105773730 0.6474037293  Biso 1.0 Ge
Ge29 1.0000000000 0.1894226270 0.3525962707 0.5000000000  Biso 1.0 Ge
Ge30 1.0000000000 0.1894226270 0.6474037293 0.5000000000  Biso 1.0 Ge
Ge31 1.0000000000 0.8105773730 0.3525962707 0.5000000000  Biso 1.0 Ge
Ge32 1.0000000000 0.8105773730 0.6474037293 0.5000000000  Biso 1.0 Ge
Rh33 1.0000000000 0.7500000000 0.7500000000 0.2500000000  Biso 1.0 Rh
Rh34 1.0000000000 0.2500000000 0.2500000000 0.2500000000  Biso 1.0 Rh
Rh35 1.0000000000 0.2500000000 0.7500000000 0.7500000000  Biso 1.0 Rh
Rh36 1.0000000000 0.7500000000 0.2500000000 0.7500000000  Biso 1.0 Rh
Rh37 1.0000000000 0.2500000000 0.2500000000 0.7500000000  Biso 1.0 Rh
Rh38 1.0000000000 0.7500000000 0.7500000000 0.7500000000  Biso 1.0 Rh
Rh39 1.0000000000 0.7500000000 0.2500000000 0.2500000000  Biso 1.0 Rh
Rh40 1.0000000000 0.2500000000 0.7500000000 0.2500000000  Biso 1.0 Rh
