# AFLOW.org Repositories
# Er4In1Rh1   [FCC,FCC,cF96] (STD_PRIM doi
data_Er4In1Rh1
_pd_phase_name Er4In1Rh1
_cell_length_a  9.5487379360
_cell_length_b  9.5487379360
_cell_length_c  9.5487379360
_cell_angle_alpha  60.0000000000
_cell_angle_beta  60.0000000000
_cell_angle_gamma  60.0000000000
_symmetry_space_group_name_H-M  'P1'
_symmetry_Int_Tables_Number  1
loop_
_symmetry_equiv_pos_site_id
_symmetry_equiv_pos_as_xyz
  1  x,y,z
loop_
 _atom_site_label
 _atom_site_occupancy
 _atom_site_fract_x
 _atom_site_fract_y
 _atom_site_fract_z
 _atom_site_thermal_displace_type
 _atom_site_B_iso_or_equiv
 _atom_site_type_symbol
Er1 1.0000000000 0.0627439094 0.0627439094 0.4372560906  Biso 1.0 Er
Er2 1.0000000000 0.4372560906 0.4372560906 0.0627439094  Biso 1.0 Er
Er3 1.0000000000 0.4372560906 0.0627439094 0.0627439094  Biso 1.0 Er
Er4 1.0000000000 0.0627439094 0.4372560906 0.4372560906  Biso 1.0 Er
Er5 1.0000000000 0.4372560906 0.0627439094 0.4372560906  Biso 1.0 Er
Er6 1.0000000000 0.0627439094 0.4372560906 0.0627439094  Biso 1.0 Er
Er7 1.0000000000 0.1886752072 0.1886752072 0.8113247928  Biso 1.0 Er
Er8 1.0000000000 0.8113247928 0.8113247928 0.1886752072  Biso 1.0 Er
Er9 1.0000000000 0.8113247928 0.1886752072 0.1886752072  Biso 1.0 Er
Er10 1.0000000000 0.1886752072 0.8113247928 0.8113247928  Biso 1.0 Er
Er11 1.0000000000 0.8113247928 0.1886752072 0.8113247928  Biso 1.0 Er
Er12 1.0000000000 0.1886752072 0.8113247928 0.1886752072  Biso 1.0 Er
Er13 1.0000000000 0.6508531127 0.0474406618 0.6508531127  Biso 1.0 Er
Er14 1.0000000000 0.6508531127 0.6508531127 0.6508531127  Biso 1.0 Er
Er15 1.0000000000 0.6508531127 0.6508531127 0.0474406618  Biso 1.0 Er
Er16 1.0000000000 0.0474406618 0.6508531127 0.6508531127  Biso 1.0 Er
In17 1.0000000000 0.4171113691 0.7486658926 0.4171113691  Biso 1.0 In
In18 1.0000000000 0.4171113691 0.4171113691 0.4171113691  Biso 1.0 In
In19 1.0000000000 0.4171113691 0.4171113691 0.7486658926  Biso 1.0 In
In20 1.0000000000 0.7486658926 0.4171113691 0.4171113691  Biso 1.0 In
Rh21 1.0000000000 0.8575280421 0.4274158737 0.8575280421  Biso 1.0 Rh
Rh22 1.0000000000 0.8575280421 0.8575280421 0.8575280421  Biso 1.0 Rh
Rh23 1.0000000000 0.8575280421 0.8575280421 0.4274158737  Biso 1.0 Rh
Rh24 1.0000000000 0.4274158737 0.8575280421 0.8575280421  Biso 1.0 Rh
