# AFLOW.org Repositories
# F10K1Y3   [FCC,FCC,cF112] (STD_PRIM doi:
data_F10K1Y3
_pd_phase_name F10K1Y3
_cell_length_a  8.2775034169
_cell_length_b  8.2775034169
_cell_length_c  8.2775034169
_cell_angle_alpha  60.0000000000
_cell_angle_beta  60.0000000000
_cell_angle_gamma  60.0000000000
_symmetry_space_group_name_H-M  'P1'
_symmetry_Int_Tables_Number  1
loop_
_symmetry_equiv_pos_site_id
_symmetry_equiv_pos_as_xyz
  1  x,y,z
loop_
 _atom_site_label
 _atom_site_occupancy
 _atom_site_fract_x
 _atom_site_fract_y
 _atom_site_fract_z
 _atom_site_thermal_displace_type
 _atom_site_B_iso_or_equiv
 _atom_site_type_symbol
F1 1.0000000000 0.8882373104 0.8882373104 0.8882373104  Biso 1.0 F
F2 1.0000000000 0.8882373104 0.8882373104 0.3352880689  Biso 1.0 F
F3 1.0000000000 0.3352880689 0.8882373104 0.8882373104  Biso 1.0 F
F4 1.0000000000 0.8882373104 0.3352880689 0.8882373104  Biso 1.0 F
F5 1.0000000000 0.1117626896 0.1117626896 0.6647119311  Biso 1.0 F
F6 1.0000000000 0.1117626896 0.1117626896 0.1117626896  Biso 1.0 F
F7 1.0000000000 0.6647119311 0.1117626896 0.1117626896  Biso 1.0 F
F8 1.0000000000 0.1117626896 0.6647119311 0.1117626896  Biso 1.0 F
F9 1.0000000000 0.5000000000 0.1699624811 0.5000000000  Biso 1.0 F
F10 1.0000000000 0.1699624811 0.5000000000 0.8300375189  Biso 1.0 F
F11 1.0000000000 0.8300375189 0.5000000000 0.1699624811  Biso 1.0 F
F12 1.0000000000 0.5000000000 0.8300375189 0.5000000000  Biso 1.0 F
F13 1.0000000000 0.1699624811 0.5000000000 0.5000000000  Biso 1.0 F
F14 1.0000000000 0.5000000000 0.8300375189 0.1699624811  Biso 1.0 F
F15 1.0000000000 0.5000000000 0.1699624811 0.8300375189  Biso 1.0 F
F16 1.0000000000 0.8300375189 0.5000000000 0.5000000000  Biso 1.0 F
F17 1.0000000000 0.5000000000 0.5000000000 0.1699624811  Biso 1.0 F
F18 1.0000000000 0.8300375189 0.1699624811 0.5000000000  Biso 1.0 F
F19 1.0000000000 0.1699624811 0.8300375189 0.5000000000  Biso 1.0 F
F20 1.0000000000 0.5000000000 0.5000000000 0.8300375189  Biso 1.0 F
K21 1.0000000000 0.7500000000 0.7500000000 0.7500000000  Biso 1.0 K
K22 1.0000000000 0.2500000000 0.2500000000 0.2500000000  Biso 1.0 K
Y23 1.0000000000 0.7593940427 0.2406059573 0.7593940427  Biso 1.0 Y
Y24 1.0000000000 0.2406059573 0.7593940427 0.2406059573  Biso 1.0 Y
Y25 1.0000000000 0.2406059573 0.7593940427 0.7593940427  Biso 1.0 Y
Y26 1.0000000000 0.7593940427 0.2406059573 0.2406059573  Biso 1.0 Y
Y27 1.0000000000 0.7593940427 0.7593940427 0.2406059573  Biso 1.0 Y
Y28 1.0000000000 0.2406059573 0.2406059573 0.7593940427  Biso 1.0 Y
