# AFLOW.org Repositories
# Fe1Rh2S4   [FCC,FCC,cF56] (STD_PRIM doi:
data_Fe1Rh2S4
_pd_phase_name Fe1Rh2S4
_cell_length_a  7.1031259721
_cell_length_b  7.1031259721
_cell_length_c  7.1031259721
_cell_angle_alpha  60.0000000000
_cell_angle_beta  60.0000000000
_cell_angle_gamma  60.0000000000
_symmetry_space_group_name_H-M  'P1'
_symmetry_Int_Tables_Number  1
loop_
_symmetry_equiv_pos_site_id
_symmetry_equiv_pos_as_xyz
  1  x,y,z
loop_
 _atom_site_label
 _atom_site_occupancy
 _atom_site_fract_x
 _atom_site_fract_y
 _atom_site_fract_z
 _atom_site_thermal_displace_type
 _atom_site_B_iso_or_equiv
 _atom_site_type_symbol
Fe1 1.0000000000 0.0000000000 0.0000000000 0.0000000000  Biso 1.0 Fe
Fe2 1.0000000000 0.2500000000 0.2500000000 0.2500000000  Biso 1.0 Fe
Rh3 1.0000000000 0.6250000000 0.1250000000 0.6250000000  Biso 1.0 Rh
Rh4 1.0000000000 0.1250000000 0.6250000000 0.6250000000  Biso 1.0 Rh
Rh5 1.0000000000 0.6250000000 0.6250000000 0.6250000000  Biso 1.0 Rh
Rh6 1.0000000000 0.6250000000 0.6250000000 0.1250000000  Biso 1.0 Rh
S7 1.0000000000 0.3866402912 0.8400791263 0.3866402912  Biso 1.0 S
S8 1.0000000000 0.8400791263 0.3866402912 0.3866402912  Biso 1.0 S
S9 1.0000000000 0.3866402912 0.3866402912 0.3866402912  Biso 1.0 S
S10 1.0000000000 0.3866402912 0.3866402912 0.8400791263  Biso 1.0 S
S11 1.0000000000 0.4099208737 0.8633597088 0.8633597088  Biso 1.0 S
S12 1.0000000000 0.8633597088 0.4099208737 0.8633597088  Biso 1.0 S
S13 1.0000000000 0.8633597088 0.8633597088 0.8633597088  Biso 1.0 S
S14 1.0000000000 0.8633597088 0.8633597088 0.4099208737  Biso 1.0 S
