# AFLOW.org Repositories
# Ga1   [ORCC,ORCC,oS8] (STD_PRIM doi:10.1
data_Ga1
_pd_phase_name Ga1
_cell_length_a  2.9959906251
_cell_length_b  2.9959906251
_cell_length_c  8.2342984220
_cell_angle_alpha  90.0000000000
_cell_angle_beta  90.0000000000
_cell_angle_gamma  94.7418822155
_symmetry_space_group_name_H-M  'P1'
_symmetry_Int_Tables_Number  1
loop_
_symmetry_equiv_pos_site_id
_symmetry_equiv_pos_as_xyz
  1  x,y,z
loop_
 _atom_site_label
 _atom_site_occupancy
 _atom_site_fract_x
 _atom_site_fract_y
 _atom_site_fract_z
 _atom_site_thermal_displace_type
 _atom_site_B_iso_or_equiv
 _atom_site_type_symbol
Ga1 1.0000000000 0.7512072653 0.2487927347 0.8749976984  Biso 1.0 Ga
Ga2 1.0000000000 0.7487927347 0.2512072653 0.3749976984  Biso 1.0 Ga
Ga3 1.0000000000 0.2512072653 0.7487927347 0.6250023016  Biso 1.0 Ga
Ga4 1.0000000000 0.2487927347 0.7512072653 0.1250023016  Biso 1.0 Ga
