# AFLOW.org Repositories
# Ga1Li1O2   [ORC,ORC,oP16] (STD_PRIM doi:
data_Ga1Li1O2
_pd_phase_name Ga1Li1O2
_cell_length_a  5.0625331410
_cell_length_b  5.4513995063
_cell_length_c  6.4382910884
_cell_angle_alpha  90.0000000000
_cell_angle_beta  90.0000000000
_cell_angle_gamma  90.0000000000
_symmetry_space_group_name_H-M  'P1'
_symmetry_Int_Tables_Number  1
loop_
_symmetry_equiv_pos_site_id
_symmetry_equiv_pos_as_xyz
  1  x,y,z
loop_
 _atom_site_label
 _atom_site_occupancy
 _atom_site_fract_x
 _atom_site_fract_y
 _atom_site_fract_z
 _atom_site_thermal_displace_type
 _atom_site_B_iso_or_equiv
 _atom_site_type_symbol
Ga1 1.0000000000 0.0000000000 0.0814322624 0.8738893858  Biso 1.0 Ga
Ga2 1.0000000000 0.4998944941 0.9185677376 0.1261106142  Biso 1.0 Ga
Ga3 1.0000000000 0.0000000000 0.5814322624 0.6261106142  Biso 1.0 Ga
Ga4 1.0000000000 0.4998944941 0.4185677376 0.3738893858  Biso 1.0 Ga
Li5 1.0000000000 0.5044120346 0.4188409085 0.8756697705  Biso 1.0 Li
Li6 1.0000000000 0.0044120346 0.5811590915 0.1243302295  Biso 1.0 Li
Li7 1.0000000000 0.5044120346 0.9188409085 0.6243302295  Biso 1.0 Li
Li8 1.0000000000 0.0044120346 0.0811590915 0.3756697705  Biso 1.0 Li
O9 1.0000000000 0.1080733857 0.4076386693 0.8619090289  Biso 1.0 O
O10 1.0000000000 0.6080733857 0.5923613307 0.1380909711  Biso 1.0 O
O11 1.0000000000 0.1080733857 0.9076386693 0.6380909711  Biso 1.0 O
O12 1.0000000000 0.6080733857 0.0923613307 0.3619090289  Biso 1.0 O
O13 1.0000000000 0.6305200855 0.0699403725 0.8877136989  Biso 1.0 O
O14 1.0000000000 0.1305200855 0.9300596275 0.1122863011  Biso 1.0 O
O15 1.0000000000 0.6305200855 0.5699403725 0.6122863011  Biso 1.0 O
O16 1.0000000000 0.1305200855 0.4300596275 0.3877136989  Biso 1.0 O
