# AFLOW.org Repositories
# Ga1O6Y3   [ORCC,ORCC,oS40] (STD_PRIM doi
data_Ga1O6Y3
_pd_phase_name Ga1O6Y3
_cell_length_a  7.1615979432
_cell_length_b  7.1615979432
_cell_length_c  5.4546453685
_cell_angle_alpha  90.0000000000
_cell_angle_beta  90.0000000000
_cell_angle_gamma  102.8356754552
_symmetry_space_group_name_H-M  'P1'
_symmetry_Int_Tables_Number  1
loop_
_symmetry_equiv_pos_site_id
_symmetry_equiv_pos_as_xyz
  1  x,y,z
loop_
 _atom_site_label
 _atom_site_occupancy
 _atom_site_fract_x
 _atom_site_fract_y
 _atom_site_fract_z
 _atom_site_thermal_displace_type
 _atom_site_B_iso_or_equiv
 _atom_site_type_symbol
Ga1 1.0000000000 0.1936703858 0.8063296142 0.0000000000  Biso 1.0 Ga
Ga2 1.0000000000 0.8063296142 0.1936703858 0.4998113068  Biso 1.0 Ga
O3 1.0000000000 0.1066160372 0.5784119860 0.1779373624  Biso 1.0 O
O4 1.0000000000 0.8933839628 0.4215880140 0.6779373624  Biso 1.0 O
O5 1.0000000000 0.5784119860 0.1066160372 0.6779373624  Biso 1.0 O
O6 1.0000000000 0.4215880140 0.8933839628 0.1779373624  Biso 1.0 O
O7 1.0000000000 0.6769755462 0.6438593953 0.1958736050  Biso 1.0 O
O8 1.0000000000 0.3230244538 0.3561406047 0.6958736050  Biso 1.0 O
O9 1.0000000000 0.6438593953 0.6769755462 0.6958736050  Biso 1.0 O
O10 1.0000000000 0.3561406047 0.3230244538 0.1958736050  Biso 1.0 O
O11 1.0000000000 0.0397546829 0.9602453171 0.1408525178  Biso 1.0 O
O12 1.0000000000 0.9602453171 0.0397546829 0.6408525178  Biso 1.0 O
O13 1.0000000000 0.2151866024 0.7848133976 0.6626821094  Biso 1.0 O
O14 1.0000000000 0.7848133976 0.2151866024 0.1626821094  Biso 1.0 O
Y15 1.0000000000 0.9120282219 0.7012550745 0.4683870002  Biso 1.0 Y
Y16 1.0000000000 0.0879717781 0.2987449255 0.9683870002  Biso 1.0 Y
Y17 1.0000000000 0.7012550745 0.9120282219 0.9683870002  Biso 1.0 Y
Y18 1.0000000000 0.2987449255 0.0879717781 0.4683870002  Biso 1.0 Y
Y19 1.0000000000 0.3980580257 0.6019419743 0.4214781307  Biso 1.0 Y
Y20 1.0000000000 0.6019419743 0.3980580257 0.9214781307  Biso 1.0 Y
