# AFLOW.org Repositories
# Ga1Pt1Y1   [ORC,ORC,oP12] (STD_PRIM doi:
data_Ga1Pt1Y1
_pd_phase_name Ga1Pt1Y1
_cell_length_a  4.4357180625
_cell_length_b  6.9245214660
_cell_length_c  7.6610653633
_cell_angle_alpha  90.0000000000
_cell_angle_beta  90.0000000000
_cell_angle_gamma  90.0000000000
_symmetry_space_group_name_H-M  'P1'
_symmetry_Int_Tables_Number  1
loop_
_symmetry_equiv_pos_site_id
_symmetry_equiv_pos_as_xyz
  1  x,y,z
loop_
 _atom_site_label
 _atom_site_occupancy
 _atom_site_fract_x
 _atom_site_fract_y
 _atom_site_fract_z
 _atom_site_thermal_displace_type
 _atom_site_B_iso_or_equiv
 _atom_site_type_symbol
Ga1 1.0000000000 0.2500000000 0.3287173453 0.5752025559  Biso 1.0 Ga
Ga2 1.0000000000 0.7500000000 0.1712826547 0.0752025559  Biso 1.0 Ga
Ga3 1.0000000000 0.7500000000 0.6712826547 0.4247974441  Biso 1.0 Ga
Ga4 1.0000000000 0.2500000000 0.8287173453 0.9247974441  Biso 1.0 Ga
Pt5 1.0000000000 0.2500000000 0.2217506266 0.9019901607  Biso 1.0 Pt
Pt6 1.0000000000 0.7500000000 0.2782493734 0.4019901607  Biso 1.0 Pt
Pt7 1.0000000000 0.7500000000 0.7782493734 0.0980098393  Biso 1.0 Pt
Pt8 1.0000000000 0.2500000000 0.7217506266 0.5980098393  Biso 1.0 Pt
Y9 1.0000000000 0.2500000000 0.9839829371 0.3029300956  Biso 1.0 Y
Y10 1.0000000000 0.7500000000 0.5160170629 0.8029300956  Biso 1.0 Y
Y11 1.0000000000 0.7500000000 0.0160170629 0.6970699044  Biso 1.0 Y
Y12 1.0000000000 0.2500000000 0.4839829371 0.1970699044  Biso 1.0 Y
