# AFLOW.org Repositories
# Ga1Pt1Th1   [HEX,HEX,hP9] (STD_PRIM doi:
data_Ga1Pt1Th1
_pd_phase_name Ga1Pt1Th1
_cell_length_a  7.4946461574
_cell_length_b  7.4946461574
_cell_length_c  4.1479142828
_cell_angle_alpha  90.0000000000
_cell_angle_beta  90.0000000000
_cell_angle_gamma  120.0000000000
_symmetry_space_group_name_H-M  'P1'
_symmetry_Int_Tables_Number  1
loop_
_symmetry_equiv_pos_site_id
_symmetry_equiv_pos_as_xyz
  1  x,y,z
loop_
 _atom_site_label
 _atom_site_occupancy
 _atom_site_fract_x
 _atom_site_fract_y
 _atom_site_fract_z
 _atom_site_thermal_displace_type
 _atom_site_B_iso_or_equiv
 _atom_site_type_symbol
Ga1 1.0000000000 0.0000000000 0.7614709039 0.0000000000  Biso 1.0 Ga
Ga2 1.0000000000 0.2385290961 0.2385290961 0.0000000000  Biso 1.0 Ga
Ga3 1.0000000000 0.7614716620 0.0000000000 0.0000000000  Biso 1.0 Ga
Pt4 1.0000000000 0.6666620240 0.3333291560 0.0000000000  Biso 1.0 Pt
Pt5 1.0000000000 0.3333328680 0.6666708440 0.0000000000  Biso 1.0 Pt
Pt6 1.0000000000 0.0000000000 0.0000000000 0.5000000000  Biso 1.0 Pt
Th7 1.0000000000 0.0000000000 0.4113481967 0.5000000000  Biso 1.0 Th
Th8 1.0000000000 0.5886518033 0.5886518033 0.5000000000  Biso 1.0 Th
Th9 1.0000000000 0.4113496009 0.0000000000 0.5000000000  Biso 1.0 Th
