# AFLOW.org Repositories
# Ga2S4Sr1   [ORCC,ORCC,oS28] (STD_PRIM do
data_Ga2S4Sr1
_pd_phase_name Ga2S4Sr1
_cell_length_a  6.0800247929
_cell_length_b  6.0800247929
_cell_length_c  10.6367376962
_cell_angle_alpha  90.0000000000
_cell_angle_beta  90.0000000000
_cell_angle_gamma  120.2125925843
_symmetry_space_group_name_H-M  'P1'
_symmetry_Int_Tables_Number  1
loop_
_symmetry_equiv_pos_site_id
_symmetry_equiv_pos_as_xyz
  1  x,y,z
loop_
 _atom_site_label
 _atom_site_occupancy
 _atom_site_fract_x
 _atom_site_fract_y
 _atom_site_fract_z
 _atom_site_thermal_displace_type
 _atom_site_B_iso_or_equiv
 _atom_site_type_symbol
Ga1 1.0000000000 0.7615579484 0.2364122263 0.0000000000  Biso 1.0 Ga
Ga2 1.0000000000 0.2384420516 0.7635877737 0.0000000000  Biso 1.0 Ga
Ga3 1.0000000000 0.7635877737 0.2384420516 0.5000000000  Biso 1.0 Ga
Ga4 1.0000000000 0.2364122263 0.7615579484 0.5000000000  Biso 1.0 Ga
S5 1.0000000000 0.8172505154 0.6465431358 0.0000000000  Biso 1.0 S
S6 1.0000000000 0.1827494846 0.3534568642 0.0000000000  Biso 1.0 S
S7 1.0000000000 0.3534568642 0.1827494846 0.5000000000  Biso 1.0 S
S8 1.0000000000 0.6465431358 0.8172505154 0.5000000000  Biso 1.0 S
S9 1.0000000000 0.0000000000 0.5000000000 0.3358265527  Biso 1.0 S
S10 1.0000000000 0.5000000000 0.0000000000 0.1641734473  Biso 1.0 S
S11 1.0000000000 0.0000000000 0.5000000000 0.6641734473  Biso 1.0 S
S12 1.0000000000 0.5000000000 0.0000000000 0.8358265527  Biso 1.0 S
Sr13 1.0000000000 0.5000000000 0.5000000000 0.2500000000  Biso 1.0 Sr
Sr14 1.0000000000 0.5000000000 0.5000000000 0.7500000000  Biso 1.0 Sr
