# AFLOW.org Repositories
# Ge1Ho1Rh1   [ORC,ORC,oP12] (STD_PRIM doi
data_Ge1Ho1Rh1
_pd_phase_name Ge1Ho1Rh1
_cell_length_a  4.3202809756
_cell_length_b  6.9094433728
_cell_length_c  7.5135217897
_cell_angle_alpha  90.0000000000
_cell_angle_beta  90.0000000000
_cell_angle_gamma  90.0000000000
_symmetry_space_group_name_H-M  'P1'
_symmetry_Int_Tables_Number  1
loop_
_symmetry_equiv_pos_site_id
_symmetry_equiv_pos_as_xyz
  1  x,y,z
loop_
 _atom_site_label
 _atom_site_occupancy
 _atom_site_fract_x
 _atom_site_fract_y
 _atom_site_fract_z
 _atom_site_thermal_displace_type
 _atom_site_B_iso_or_equiv
 _atom_site_type_symbol
Ge1 1.0000000000 0.2500000000 0.2881979481 0.6012988850  Biso 1.0 Ge
Ge2 1.0000000000 0.7500000000 0.2118020519 0.1012988850  Biso 1.0 Ge
Ge3 1.0000000000 0.7500000000 0.7118020519 0.3987011150  Biso 1.0 Ge
Ge4 1.0000000000 0.2500000000 0.7881979481 0.8987011150  Biso 1.0 Ge
Ho5 1.0000000000 0.2500000000 0.0000000000 0.3023324864  Biso 1.0 Ho
Ho6 1.0000000000 0.7500000000 0.5004398219 0.8023324864  Biso 1.0 Ho
Ho7 1.0000000000 0.7500000000 0.0000000000 0.6976675136  Biso 1.0 Ho
Ho8 1.0000000000 0.2500000000 0.4995601781 0.1976675136  Biso 1.0 Ho
Rh9 1.0000000000 0.2500000000 0.1571957898 0.9294920220  Biso 1.0 Rh
Rh10 1.0000000000 0.7500000000 0.3428042102 0.4294920220  Biso 1.0 Rh
Rh11 1.0000000000 0.7500000000 0.8428042102 0.0705079780  Biso 1.0 Rh
Rh12 1.0000000000 0.2500000000 0.6571957898 0.5705079780  Biso 1.0 Rh
