# AFLOW.org Repositories
# Ge1Mg1N2   [ORC,ORC,oP16] (STD_PRIM doi:
data_Ge1Mg1N2
_pd_phase_name Ge1Mg1N2
_cell_length_a  5.2271963157
_cell_length_b  5.5517322337
_cell_length_c  6.6758128493
_cell_angle_alpha  90.0000000000
_cell_angle_beta  90.0000000000
_cell_angle_gamma  90.0000000000
_symmetry_space_group_name_H-M  'P1'
_symmetry_Int_Tables_Number  1
loop_
_symmetry_equiv_pos_site_id
_symmetry_equiv_pos_as_xyz
  1  x,y,z
loop_
 _atom_site_label
 _atom_site_occupancy
 _atom_site_fract_x
 _atom_site_fract_y
 _atom_site_fract_z
 _atom_site_thermal_displace_type
 _atom_site_B_iso_or_equiv
 _atom_site_type_symbol
Ge1 1.0000000000 0.9927608227 0.0736870917 0.8741215346  Biso 1.0 Ge
Ge2 1.0000000000 0.4927608227 0.9263129083 0.1258784654  Biso 1.0 Ge
Ge3 1.0000000000 0.9927608227 0.5736870917 0.6258784654  Biso 1.0 Ge
Ge4 1.0000000000 0.4927608227 0.4263129083 0.3741215346  Biso 1.0 Ge
Mg5 1.0000000000 0.0000000000 0.0843203357 0.3762255385  Biso 1.0 Mg
Mg6 1.0000000000 0.4997992014 0.9156796643 0.6237744615  Biso 1.0 Mg
Mg7 1.0000000000 0.0000000000 0.5843203357 0.1237744615  Biso 1.0 Mg
Mg8 1.0000000000 0.4997992014 0.4156796643 0.8762255385  Biso 1.0 Mg
N9 1.0000000000 0.6323532158 0.0606960348 0.8928558526  Biso 1.0 N
N10 1.0000000000 0.1323532158 0.9393039652 0.1071441474  Biso 1.0 N
N11 1.0000000000 0.6323532158 0.5606960348 0.6071441474  Biso 1.0 N
N12 1.0000000000 0.1323532158 0.4393039652 0.3928558526  Biso 1.0 N
N13 1.0000000000 0.5950867602 0.0995772376 0.3571794084  Biso 1.0 N
N14 1.0000000000 0.0950867602 0.9004227624 0.6428205916  Biso 1.0 N
N15 1.0000000000 0.5950867602 0.5995772376 0.1428205916  Biso 1.0 N
N16 1.0000000000 0.0950867602 0.4004227624 0.8571794084  Biso 1.0 N
