# AFLOW.org Repositories
# Ge1Ni1Ti1   [ORC,ORC,oP12] (STD_PRIM doi
data_Ge1Ni1Ti1
_pd_phase_name Ge1Ni1Ti1
_cell_length_a  3.7609570163
_cell_length_b  6.3046824378
_cell_length_c  7.1998980406
_cell_angle_alpha  90.0000000000
_cell_angle_beta  90.0000000000
_cell_angle_gamma  90.0000000000
_symmetry_space_group_name_H-M  'P1'
_symmetry_Int_Tables_Number  1
loop_
_symmetry_equiv_pos_site_id
_symmetry_equiv_pos_as_xyz
  1  x,y,z
loop_
 _atom_site_label
 _atom_site_occupancy
 _atom_site_fract_x
 _atom_site_fract_y
 _atom_site_fract_z
 _atom_site_thermal_displace_type
 _atom_site_B_iso_or_equiv
 _atom_site_type_symbol
Ge1 1.0000000000 0.2500000000 0.7593936925 0.3782653900  Biso 1.0 Ge
Ge2 1.0000000000 0.7500000000 0.7406063075 0.8782653900  Biso 1.0 Ge
Ge3 1.0000000000 0.7500000000 0.2406063075 0.6217346100  Biso 1.0 Ge
Ge4 1.0000000000 0.2500000000 0.2593936925 0.1217346100  Biso 1.0 Ge
Ni5 1.0000000000 0.2500000000 0.1389567658 0.4397651807  Biso 1.0 Ni
Ni6 1.0000000000 0.7500000000 0.3610432342 0.9397651807  Biso 1.0 Ni
Ni7 1.0000000000 0.7500000000 0.8610432342 0.5602348193  Biso 1.0 Ni
Ni8 1.0000000000 0.2500000000 0.6389567658 0.0602348193  Biso 1.0 Ni
Ti9 1.0000000000 0.2500000000 0.0258899994 0.8134273972  Biso 1.0 Ti
Ti10 1.0000000000 0.7500000000 0.4741100006 0.3134273972  Biso 1.0 Ti
Ti11 1.0000000000 0.7500000000 0.9741100006 0.1865726028  Biso 1.0 Ti
Ti12 1.0000000000 0.2500000000 0.5258899994 0.6865726028  Biso 1.0 Ti
