# AFLOW.org Repositories
# Ge1Os1Sc1   [HEX,HEX,hP9] (STD_PRIM doi:
data_Ge1Os1Sc1
_pd_phase_name Ge1Os1Sc1
_cell_length_a  7.0616873296
_cell_length_b  7.0616873296
_cell_length_c  3.4755254828
_cell_angle_alpha  90.0000000000
_cell_angle_beta  90.0000000000
_cell_angle_gamma  120.0000000000
_symmetry_space_group_name_H-M  'P1'
_symmetry_Int_Tables_Number  1
loop_
_symmetry_equiv_pos_site_id
_symmetry_equiv_pos_as_xyz
  1  x,y,z
loop_
 _atom_site_label
 _atom_site_occupancy
 _atom_site_fract_x
 _atom_site_fract_y
 _atom_site_fract_z
 _atom_site_thermal_displace_type
 _atom_site_B_iso_or_equiv
 _atom_site_type_symbol
Ge1 1.0000000000 0.6666678437 0.3333419829 0.0000000000  Biso 1.0 Ge
Ge2 1.0000000000 0.3333258608 0.6666580171 0.0000000000  Biso 1.0 Ge
Ge3 1.0000000000 0.0000000000 0.0000000000 0.5000000000  Biso 1.0 Ge
Os4 1.0000000000 0.0000000000 0.7452909240 0.0000000000  Biso 1.0 Os
Os5 1.0000000000 0.2547090760 0.2547090760 0.0000000000  Biso 1.0 Os
Os6 1.0000000000 0.7453015336 0.0000000000 0.0000000000  Biso 1.0 Os
Sc7 1.0000000000 0.0000000000 0.4003444061 0.5000000000  Biso 1.0 Sc
Sc8 1.0000000000 0.5996555939 0.5996555939 0.5000000000  Biso 1.0 Sc
Sc9 1.0000000000 0.4003269576 0.0000000000 0.5000000000  Biso 1.0 Sc
