# AFLOW.org Repositories
# Ge1S2   [BCT,BCT2,tI12] (STD_PRIM doi:10
data_Ge1S2
_pd_phase_name Ge1S2
_cell_length_a  6.0985797144
_cell_length_b  6.0985797144
_cell_length_c  6.0985797144
_cell_angle_alpha  123.6745171369
_cell_angle_beta  123.6745171369
_cell_angle_gamma  83.7452833906
_symmetry_space_group_name_H-M  'P1'
_symmetry_Int_Tables_Number  1
loop_
_symmetry_equiv_pos_site_id
_symmetry_equiv_pos_as_xyz
  1  x,y,z
loop_
 _atom_site_label
 _atom_site_occupancy
 _atom_site_fract_x
 _atom_site_fract_y
 _atom_site_fract_z
 _atom_site_thermal_displace_type
 _atom_site_B_iso_or_equiv
 _atom_site_type_symbol
Ge1 1.0000000000 0.0000000000 0.0000000000 0.0000000000  Biso 1.0 Ge
Ge2 1.0000000000 0.2500000000 0.7500000000 0.5000000000  Biso 1.0 Ge
S3 1.0000000000 0.3519729063 0.8750000000 0.9769729063  Biso 1.0 S
S4 1.0000000000 0.8980270937 0.3750000000 0.0230270937  Biso 1.0 S
S5 1.0000000000 0.1250000000 0.1019729063 0.4769729063  Biso 1.0 S
S6 1.0000000000 0.6250000000 0.6480270937 0.5230270937  Biso 1.0 S
