# AFLOW.org Repositories
# Ge2Mo1   [BCT,BCT2,tI6] (STD_PRIM doi:10
data_Ge2Mo1
_pd_phase_name Ge2Mo1
_cell_length_a  4.7771553982
_cell_length_b  4.7771553982
_cell_length_c  4.7771553982
_cell_angle_alpha  138.9132660460
_cell_angle_beta  138.9132660460
_cell_angle_gamma  59.5071286492
_symmetry_space_group_name_H-M  'P1'
_symmetry_Int_Tables_Number  1
loop_
_symmetry_equiv_pos_site_id
_symmetry_equiv_pos_as_xyz
  1  x,y,z
loop_
 _atom_site_label
 _atom_site_occupancy
 _atom_site_fract_x
 _atom_site_fract_y
 _atom_site_fract_z
 _atom_site_thermal_displace_type
 _atom_site_B_iso_or_equiv
 _atom_site_type_symbol
Ge1 1.0000000000 0.6611184304 0.6611184304 0.0000000000  Biso 1.0 Ge
Ge2 1.0000000000 0.3388815696 0.3388815696 0.0000000000  Biso 1.0 Ge
Mo3 1.0000000000 0.0000000000 0.0000000000 0.0000000000  Biso 1.0 Mo
