# AFLOW.org Repositories
# Ge2Th1   [BCT,BCT2,tI12] (STD_PRIM doi:1
data_Ge2Th1
_pd_phase_name Ge2Th1
_cell_length_a  8.9945896975
_cell_length_b  8.9945896975
_cell_length_c  8.9945896975
_cell_angle_alpha  153.4358621287
_cell_angle_beta  153.4358621287
_cell_angle_gamma  37.9200905888
_symmetry_space_group_name_H-M  'P1'
_symmetry_Int_Tables_Number  1
loop_
_symmetry_equiv_pos_site_id
_symmetry_equiv_pos_as_xyz
  1  x,y,z
loop_
 _atom_site_label
 _atom_site_occupancy
 _atom_site_fract_x
 _atom_site_fract_y
 _atom_site_fract_z
 _atom_site_thermal_displace_type
 _atom_site_B_iso_or_equiv
 _atom_site_type_symbol
Ge1 1.0000000000 0.5806358039 0.5806358039 0.0000000000  Biso 1.0 Ge
Ge2 1.0000000000 0.3306358039 0.8306358039 0.5000000000  Biso 1.0 Ge
Ge3 1.0000000000 0.1693641961 0.6693641961 0.5000000000  Biso 1.0 Ge
Ge4 1.0000000000 0.4193641961 0.4193641961 0.0000000000  Biso 1.0 Ge
Th5 1.0000000000 0.0000000000 0.0000000000 0.0000000000  Biso 1.0 Th
Th6 1.0000000000 0.7500000000 0.2500000000 0.5000000000  Biso 1.0 Th
