# AFLOW.org Repositories
# Ge4Y3   [ORCC,ORCC,oS28] (STD_PRIM doi:1
data_Ge4Y3
_pd_phase_name Ge4Y3
_cell_length_a  5.7291452877
_cell_length_b  5.7291452877
_cell_length_c  14.3109544923
_cell_angle_alpha  90.0000000000
_cell_angle_beta  90.0000000000
_cell_angle_gamma  138.3449715054
_symmetry_space_group_name_H-M  'P1'
_symmetry_Int_Tables_Number  1
loop_
_symmetry_equiv_pos_site_id
_symmetry_equiv_pos_as_xyz
  1  x,y,z
loop_
 _atom_site_label
 _atom_site_occupancy
 _atom_site_fract_x
 _atom_site_fract_y
 _atom_site_fract_z
 _atom_site_thermal_displace_type
 _atom_site_B_iso_or_equiv
 _atom_site_type_symbol
Ge1 1.0000000000 0.3799841959 0.6200158041 0.1085665786  Biso 1.0 Ge
Ge2 1.0000000000 0.6200158041 0.3799841959 0.6085665786  Biso 1.0 Ge
Ge3 1.0000000000 0.3799841959 0.6200158041 0.3914334214  Biso 1.0 Ge
Ge4 1.0000000000 0.6200158041 0.3799841959 0.8914334214  Biso 1.0 Ge
Ge5 1.0000000000 0.0000000000 0.0000000000 0.0000000000  Biso 1.0 Ge
Ge6 1.0000000000 0.0000000000 0.0000000000 0.5000000000  Biso 1.0 Ge
Ge7 1.0000000000 0.7736969812 0.2263030188 0.7500000000  Biso 1.0 Ge
Ge8 1.0000000000 0.2263030188 0.7736969812 0.2500000000  Biso 1.0 Ge
Y9 1.0000000000 0.3307541184 0.6692458816 0.9029756161  Biso 1.0 Y
Y10 1.0000000000 0.6692458816 0.3307541184 0.4029756161  Biso 1.0 Y
Y11 1.0000000000 0.3307541184 0.6692458816 0.5970243839  Biso 1.0 Y
Y12 1.0000000000 0.6692458816 0.3307541184 0.0970243839  Biso 1.0 Y
Y13 1.0000000000 0.0457943798 0.9542056202 0.7500000000  Biso 1.0 Y
Y14 1.0000000000 0.9542056202 0.0457943798 0.2500000000  Biso 1.0 Y
