# AFLOW.org Repositories
# H15Th4   [BCC,BCC,cI76] (STD_PRIM doi:10
data_H15Th4
_pd_phase_name H15Th4
_cell_length_a  8.0520838083
_cell_length_b  8.0520838083
_cell_length_c  8.0520838083
_cell_angle_alpha  109.4712206345
_cell_angle_beta  109.4712206345
_cell_angle_gamma  109.4712206345
_symmetry_space_group_name_H-M  'P1'
_symmetry_Int_Tables_Number  1
loop_
_symmetry_equiv_pos_site_id
_symmetry_equiv_pos_as_xyz
  1  x,y,z
loop_
 _atom_site_label
 _atom_site_occupancy
 _atom_site_fract_x
 _atom_site_fract_y
 _atom_site_fract_z
 _atom_site_thermal_displace_type
 _atom_site_B_iso_or_equiv
 _atom_site_type_symbol
H1 1.0000000000 0.8750000000 0.6250000000 0.2500000000  Biso 1.0 H
H2 1.0000000000 0.6250000000 0.8750000000 0.7500000000  Biso 1.0 H
H3 1.0000000000 0.7500000000 0.3750000000 0.6250000000  Biso 1.0 H
H4 1.0000000000 0.2500000000 0.1250000000 0.8750000000  Biso 1.0 H
H5 1.0000000000 0.3750000000 0.7500000000 0.1250000000  Biso 1.0 H
H6 1.0000000000 0.1250000000 0.2500000000 0.3750000000  Biso 1.0 H
H7 1.0000000000 0.0348442348 0.4109946008 0.1873508884  Biso 1.0 H
H8 1.0000000000 0.7763562876 0.0890053992 0.1238496340  Biso 1.0 H
H9 1.0000000000 0.4651557652 0.6525066536 0.3761503660  Biso 1.0 H
H10 1.0000000000 0.7236437124 0.8474933464 0.3126491116  Biso 1.0 H
H11 1.0000000000 0.8126491116 0.2236437124 0.8474933464  Biso 1.0 H
H12 1.0000000000 0.8761503660 0.9651557652 0.6525066536  Biso 1.0 H
H13 1.0000000000 0.6238496340 0.2763562876 0.0890053992  Biso 1.0 H
H14 1.0000000000 0.6873508884 0.5348442348 0.4109946008  Biso 1.0 H
H15 1.0000000000 0.1525066536 0.3761503660 0.9651557652  Biso 1.0 H
H16 1.0000000000 0.3474933464 0.3126491116 0.2236437124  Biso 1.0 H
H17 1.0000000000 0.9109946008 0.1873508884 0.5348442348  Biso 1.0 H
H18 1.0000000000 0.5890053992 0.1238496340 0.2763562876  Biso 1.0 H
H19 1.0000000000 0.1873508884 0.9109946008 0.0348442348  Biso 1.0 H
H20 1.0000000000 0.1238496340 0.5890053992 0.7763562876  Biso 1.0 H
H21 1.0000000000 0.3761503660 0.1525066536 0.4651557652  Biso 1.0 H
H22 1.0000000000 0.3126491116 0.3474933464 0.7236437124  Biso 1.0 H
H23 1.0000000000 0.8474933464 0.7236437124 0.8126491116  Biso 1.0 H
H24 1.0000000000 0.6525066536 0.4651557652 0.8761503660  Biso 1.0 H
H25 1.0000000000 0.0890053992 0.7763562876 0.6238496340  Biso 1.0 H
H26 1.0000000000 0.4109946008 0.0348442348 0.6873508884  Biso 1.0 H
H27 1.0000000000 0.9651557652 0.8761503660 0.1525066536  Biso 1.0 H
H28 1.0000000000 0.2236437124 0.8126491116 0.3474933464  Biso 1.0 H
H29 1.0000000000 0.5348442348 0.6873508884 0.9109946008  Biso 1.0 H
H30 1.0000000000 0.2763562876 0.6238496340 0.5890053992  Biso 1.0 H
Th31 1.0000000000 0.0000000000 0.5863873628 0.0000000000  Biso 1.0 Th
Th32 1.0000000000 0.4136126372 0.9136126372 0.9136126372  Biso 1.0 Th
Th33 1.0000000000 0.5000000000 0.5000000000 0.5863873628  Biso 1.0 Th
Th34 1.0000000000 0.0863873628 0.0000000000 0.5000000000  Biso 1.0 Th
Th35 1.0000000000 0.0000000000 0.0863873628 0.0000000000  Biso 1.0 Th
Th36 1.0000000000 0.9136126372 0.4136126372 0.4136126372  Biso 1.0 Th
Th37 1.0000000000 0.5863873628 0.0000000000 0.5000000000  Biso 1.0 Th
Th38 1.0000000000 0.5000000000 0.5000000000 0.0863873628  Biso 1.0 Th
