# AFLOW.org Repositories
# H1N1Sr1   [ORC,ORC,oP12] (STD_PRIM doi:1
data_H1N1Sr1
_pd_phase_name H1N1Sr1
_cell_length_a  3.8798099577
_cell_length_b  5.2915057808
_cell_length_c  7.2268588769
_cell_angle_alpha  90.0000000000
_cell_angle_beta  90.0000000000
_cell_angle_gamma  90.0000000000
_symmetry_space_group_name_H-M  'P1'
_symmetry_Int_Tables_Number  1
loop_
_symmetry_equiv_pos_site_id
_symmetry_equiv_pos_as_xyz
  1  x,y,z
loop_
 _atom_site_label
 _atom_site_occupancy
 _atom_site_fract_x
 _atom_site_fract_y
 _atom_site_fract_z
 _atom_site_thermal_displace_type
 _atom_site_B_iso_or_equiv
 _atom_site_type_symbol
H1 1.0000000000 0.0000000000 0.0000000000 0.0000000000  Biso 1.0 H
H2 1.0000000000 0.0000000000 0.5000000000 0.5000000000  Biso 1.0 H
H3 1.0000000000 0.5000000000 0.0000000000 0.0000000000  Biso 1.0 H
H4 1.0000000000 0.5000000000 0.5000000000 0.5000000000  Biso 1.0 H
N5 1.0000000000 0.7500000000 0.8317482189 0.0524223568  Biso 1.0 N
N6 1.0000000000 0.2500000000 0.3317482189 0.4475776432  Biso 1.0 N
N7 1.0000000000 0.2500000000 0.1682517811 0.9475776432  Biso 1.0 N
N8 1.0000000000 0.7500000000 0.6682517811 0.5524223568  Biso 1.0 N
Sr9 1.0000000000 0.7500000000 0.3622322814 0.1820229539  Biso 1.0 Sr
Sr10 1.0000000000 0.2500000000 0.8622322814 0.3179770461  Biso 1.0 Sr
Sr11 1.0000000000 0.2500000000 0.6377677186 0.8179770461  Biso 1.0 Sr
Sr12 1.0000000000 0.7500000000 0.1377677186 0.6820229539  Biso 1.0 Sr
