# AFLOW.org Repositories
# H1Se1Y1   [HEX,HEX,hP3] (STD_PRIM doi:10
data_H1Se1Y1
_pd_phase_name H1Se1Y1
_cell_length_a  3.8473852652
_cell_length_b  3.8473852652
_cell_length_c  3.9239725853
_cell_angle_alpha  90.0000000000
_cell_angle_beta  90.0000000000
_cell_angle_gamma  120.0000000000
_symmetry_space_group_name_H-M  'P1'
_symmetry_Int_Tables_Number  1
loop_
_symmetry_equiv_pos_site_id
_symmetry_equiv_pos_as_xyz
  1  x,y,z
loop_
 _atom_site_label
 _atom_site_occupancy
 _atom_site_fract_x
 _atom_site_fract_y
 _atom_site_fract_z
 _atom_site_thermal_displace_type
 _atom_site_B_iso_or_equiv
 _atom_site_type_symbol
H1 1.0000000000 0.6666792991 0.3333585981 0.0000000000  Biso 1.0 H
Se2 1.0000000000 0.3333238376 0.6666476753 0.5000000000  Biso 1.0 Se
Y3 1.0000000000 0.0000000000 0.0000000000 0.0000000000  Biso 1.0 Y
