# AFLOW.org Repositories
# H3Mg1Na1   [ORC,ORC,oP20] (STD_PRIM doi:
data_H3Mg1Na1
_pd_phase_name H3Mg1Na1
_cell_length_a  5.3662927243
_cell_length_b  5.4450130260
_cell_length_c  7.6383406640
_cell_angle_alpha  90.0000000000
_cell_angle_beta  90.0000000000
_cell_angle_gamma  90.0000000000
_symmetry_space_group_name_H-M  'P1'
_symmetry_Int_Tables_Number  1
loop_
_symmetry_equiv_pos_site_id
_symmetry_equiv_pos_as_xyz
  1  x,y,z
loop_
 _atom_site_label
 _atom_site_occupancy
 _atom_site_fract_x
 _atom_site_fract_y
 _atom_site_fract_z
 _atom_site_thermal_displace_type
 _atom_site_B_iso_or_equiv
 _atom_site_type_symbol
H1 1.0000000000 0.9158713419 0.4765561013 0.7500000000  Biso 1.0 H
H2 1.0000000000 0.4158713419 0.0234438987 0.2500000000  Biso 1.0 H
H3 1.0000000000 0.0841286581 0.5234438987 0.2500000000  Biso 1.0 H
H4 1.0000000000 0.5841286581 0.9765561013 0.7500000000  Biso 1.0 H
H5 1.0000000000 0.2882693365 0.2870140110 0.9557029087  Biso 1.0 H
H6 1.0000000000 0.7882693365 0.2129859890 0.0442970913  Biso 1.0 H
H7 1.0000000000 0.7117306635 0.7129859890 0.4557029087  Biso 1.0 H
H8 1.0000000000 0.2117306635 0.7870140110 0.5442970913  Biso 1.0 H
H9 1.0000000000 0.7117306635 0.7129859890 0.0442970913  Biso 1.0 H
H10 1.0000000000 0.2117306635 0.7870140110 0.9557029087  Biso 1.0 H
H11 1.0000000000 0.2882693365 0.2870140110 0.5442970913  Biso 1.0 H
H12 1.0000000000 0.7882693365 0.2129859890 0.4557029087  Biso 1.0 H
Mg13 1.0000000000 0.5000000000 0.0000000000 0.0000000000  Biso 1.0 Mg
Mg14 1.0000000000 0.0000000000 0.5000000000 0.0000000000  Biso 1.0 Mg
Mg15 1.0000000000 0.5000000000 0.0000000000 0.5000000000  Biso 1.0 Mg
Mg16 1.0000000000 0.0000000000 0.5000000000 0.5000000000  Biso 1.0 Mg
Na17 1.0000000000 0.0069890314 0.0266559091 0.7500000000  Biso 1.0 Na
Na18 1.0000000000 0.5069890314 0.4733440909 0.2500000000  Biso 1.0 Na
Na19 1.0000000000 0.9930109686 0.9733440909 0.2500000000  Biso 1.0 Na
Na20 1.0000000000 0.4930109686 0.5266559091 0.7500000000  Biso 1.0 Na
