# AFLOW.org Repositories
# H3U1   [CUB,CUB,cP32] (STD_PRIM doi:10.1
data_H3U1
_pd_phase_name H3U1
_cell_length_a  6.7293130392
_cell_length_b  6.7293130392
_cell_length_c  6.7293130392
_cell_angle_alpha  90.0000000000
_cell_angle_beta  90.0000000000
_cell_angle_gamma  90.0000000000
_symmetry_space_group_name_H-M  'P1'
_symmetry_Int_Tables_Number  1
loop_
_symmetry_equiv_pos_site_id
_symmetry_equiv_pos_as_xyz
  1  x,y,z
loop_
 _atom_site_label
 _atom_site_occupancy
 _atom_site_fract_x
 _atom_site_fract_y
 _atom_site_fract_z
 _atom_site_thermal_displace_type
 _atom_site_B_iso_or_equiv
 _atom_site_type_symbol
H1 1.0000000000 0.0000000000 0.8438889130 0.3088733826  Biso 1.0 H
H2 1.0000000000 0.0000000000 0.1561110870 0.3088733826  Biso 1.0 H
H3 1.0000000000 0.0000000000 0.8438889130 0.6911266174  Biso 1.0 H
H4 1.0000000000 0.0000000000 0.1561110870 0.6911266174  Biso 1.0 H
H5 1.0000000000 0.6911266174 0.0000000000 0.1561110870  Biso 1.0 H
H6 1.0000000000 0.6911266174 0.0000000000 0.8438889130  Biso 1.0 H
H7 1.0000000000 0.3088733826 0.0000000000 0.1561110870  Biso 1.0 H
H8 1.0000000000 0.3088733826 0.0000000000 0.8438889130  Biso 1.0 H
H9 1.0000000000 0.8438889130 0.6911266174 0.0000000000  Biso 1.0 H
H10 1.0000000000 0.1561110870 0.6911266174 0.0000000000  Biso 1.0 H
H11 1.0000000000 0.8438889130 0.3088733826 0.0000000000  Biso 1.0 H
H12 1.0000000000 0.1561110870 0.3088733826 0.0000000000  Biso 1.0 H
H13 1.0000000000 0.3438889130 0.5000000000 0.1911266174  Biso 1.0 H
H14 1.0000000000 0.6561110870 0.5000000000 0.1911266174  Biso 1.0 H
H15 1.0000000000 0.3438889130 0.5000000000 0.8088733826  Biso 1.0 H
H16 1.0000000000 0.6561110870 0.5000000000 0.8088733826  Biso 1.0 H
H17 1.0000000000 0.5000000000 0.1911266174 0.3438889130  Biso 1.0 H
H18 1.0000000000 0.5000000000 0.1911266174 0.6561110870  Biso 1.0 H
H19 1.0000000000 0.5000000000 0.8088733826 0.3438889130  Biso 1.0 H
H20 1.0000000000 0.5000000000 0.8088733826 0.6561110870  Biso 1.0 H
H21 1.0000000000 0.1911266174 0.3438889130 0.5000000000  Biso 1.0 H
H22 1.0000000000 0.1911266174 0.6561110870 0.5000000000  Biso 1.0 H
H23 1.0000000000 0.8088733826 0.3438889130 0.5000000000  Biso 1.0 H
H24 1.0000000000 0.8088733826 0.6561110870 0.5000000000  Biso 1.0 H
U25 1.0000000000 0.0000000000 0.0000000000 0.0000000000  Biso 1.0 U
U26 1.0000000000 0.5000000000 0.5000000000 0.5000000000  Biso 1.0 U
U27 1.0000000000 0.7500000000 0.0000000000 0.5000000000  Biso 1.0 U
U28 1.0000000000 0.2500000000 0.0000000000 0.5000000000  Biso 1.0 U
U29 1.0000000000 0.5000000000 0.7500000000 0.0000000000  Biso 1.0 U
U30 1.0000000000 0.5000000000 0.2500000000 0.0000000000  Biso 1.0 U
U31 1.0000000000 0.0000000000 0.5000000000 0.2500000000  Biso 1.0 U
U32 1.0000000000 0.0000000000 0.5000000000 0.7500000000  Biso 1.0 U
