# AFLOW.org Repositories
# Hf1Ni2Sb1   [HEX,HEX,hP8] (STD_PRIM doi:
data_Hf1Ni2Sb1
_pd_phase_name Hf1Ni2Sb1
_cell_length_a  4.1890437783
_cell_length_b  4.1890437783
_cell_length_c  8.2178710640
_cell_angle_alpha  90.0000000000
_cell_angle_beta  90.0000000000
_cell_angle_gamma  120.0000000000
_symmetry_space_group_name_H-M  'P1'
_symmetry_Int_Tables_Number  1
loop_
_symmetry_equiv_pos_site_id
_symmetry_equiv_pos_as_xyz
  1  x,y,z
loop_
 _atom_site_label
 _atom_site_occupancy
 _atom_site_fract_x
 _atom_site_fract_y
 _atom_site_fract_z
 _atom_site_thermal_displace_type
 _atom_site_B_iso_or_equiv
 _atom_site_type_symbol
Hf1 1.0000000000 0.6666755255 0.3333510510 0.2500000000  Biso 1.0 Hf
Hf2 1.0000000000 0.3333244745 0.6666489490 0.7500000000  Biso 1.0 Hf
Ni3 1.0000000000 0.6666804389 0.3333608778 0.5963598656  Biso 1.0 Ni
Ni4 1.0000000000 0.3333195611 0.6666391222 0.0963598656  Biso 1.0 Ni
Ni5 1.0000000000 0.3333195611 0.6666391222 0.4036401344  Biso 1.0 Ni
Ni6 1.0000000000 0.6666804389 0.3333608778 0.9036401344  Biso 1.0 Ni
Sb7 1.0000000000 0.0000000000 0.0000000000 0.0000000000  Biso 1.0 Sb
Sb8 1.0000000000 0.0000000000 0.0000000000 0.5000000000  Biso 1.0 Sb
