# AFLOW.org Repositories
# Hf1O2   [ORC,ORC,oP12] (STD_PRIM doi:10.
data_Hf1O2
_pd_phase_name Hf1O2
_cell_length_a  3.3324739791
_cell_length_b  5.5579646663
_cell_length_c  6.5055166001
_cell_angle_alpha  90.0000000000
_cell_angle_beta  90.0000000000
_cell_angle_gamma  90.0000000000
_symmetry_space_group_name_H-M  'P1'
_symmetry_Int_Tables_Number  1
loop_
_symmetry_equiv_pos_site_id
_symmetry_equiv_pos_as_xyz
  1  x,y,z
loop_
 _atom_site_label
 _atom_site_occupancy
 _atom_site_fract_x
 _atom_site_fract_y
 _atom_site_fract_z
 _atom_site_thermal_displace_type
 _atom_site_B_iso_or_equiv
 _atom_site_type_symbol
Hf1 1.0000000000 0.2500000000 0.2485151091 0.8919019746  Biso 1.0 Hf
Hf2 1.0000000000 0.7500000000 0.2514848909 0.3919019746  Biso 1.0 Hf
Hf3 1.0000000000 0.7500000000 0.7514848909 0.1080980254  Biso 1.0 Hf
Hf4 1.0000000000 0.2500000000 0.7485151091 0.6080980254  Biso 1.0 Hf
O5 1.0000000000 0.2500000000 0.3604414415 0.5764357955  Biso 1.0 O
O6 1.0000000000 0.7500000000 0.1395585585 0.0764357955  Biso 1.0 O
O7 1.0000000000 0.7500000000 0.6395585585 0.4235642045  Biso 1.0 O
O8 1.0000000000 0.2500000000 0.8604414415 0.9235642045  Biso 1.0 O
O9 1.0000000000 0.7500000000 0.0212681376 0.6587436047  Biso 1.0 O
O10 1.0000000000 0.2500000000 0.4787318624 0.1587436047  Biso 1.0 O
O11 1.0000000000 0.2500000000 0.9787318624 0.3412563953  Biso 1.0 O
O12 1.0000000000 0.7500000000 0.5212681376 0.8412563953  Biso 1.0 O
