# AFLOW.org Repositories
# Hf1P1V1   [ORC,ORC,oP12] (STD_PRIM doi:1
data_Hf1P1V1
_pd_phase_name Hf1P1V1
_cell_length_a  3.4929896578
_cell_length_b  6.5922115489
_cell_length_c  7.8932879356
_cell_angle_alpha  90.0000000000
_cell_angle_beta  90.0000000000
_cell_angle_gamma  90.0000000000
_symmetry_space_group_name_H-M  'P1'
_symmetry_Int_Tables_Number  1
loop_
_symmetry_equiv_pos_site_id
_symmetry_equiv_pos_as_xyz
  1  x,y,z
loop_
 _atom_site_label
 _atom_site_occupancy
 _atom_site_fract_x
 _atom_site_fract_y
 _atom_site_fract_z
 _atom_site_thermal_displace_type
 _atom_site_B_iso_or_equiv
 _atom_site_type_symbol
Hf1 1.0000000000 0.2500000000 0.0435497295 0.8321877849  Biso 1.0 Hf
Hf2 1.0000000000 0.7500000000 0.4564502705 0.3321877849  Biso 1.0 Hf
Hf3 1.0000000000 0.7500000000 0.9564502705 0.1678122151  Biso 1.0 Hf
Hf4 1.0000000000 0.2500000000 0.5435497295 0.6678122151  Biso 1.0 Hf
P5 1.0000000000 0.2500000000 0.7577298935 0.3612334934  Biso 1.0 P
P6 1.0000000000 0.7500000000 0.7422701065 0.8612334934  Biso 1.0 P
P7 1.0000000000 0.7500000000 0.2422701065 0.6387665066  Biso 1.0 P
P8 1.0000000000 0.2500000000 0.2577298935 0.1387665066  Biso 1.0 P
V9 1.0000000000 0.2500000000 0.1303667876 0.4425868390  Biso 1.0 V
V10 1.0000000000 0.7500000000 0.3696332124 0.9425868390  Biso 1.0 V
V11 1.0000000000 0.7500000000 0.8696332124 0.5574131610  Biso 1.0 V
V12 1.0000000000 0.2500000000 0.6303667876 0.0574131610  Biso 1.0 V
