# AFLOW.org Repositories
# Hf1Pd3   [HEX,HEX,hP16] (STD_PRIM doi:10
data_Hf1Pd3
_pd_phase_name Hf1Pd3
_cell_length_a  5.6316332130
_cell_length_b  5.6316332130
_cell_length_c  9.2767043824
_cell_angle_alpha  90.0000000000
_cell_angle_beta  90.0000000000
_cell_angle_gamma  120.0000000000
_symmetry_space_group_name_H-M  'P1'
_symmetry_Int_Tables_Number  1
loop_
_symmetry_equiv_pos_site_id
_symmetry_equiv_pos_as_xyz
  1  x,y,z
loop_
 _atom_site_label
 _atom_site_occupancy
 _atom_site_fract_x
 _atom_site_fract_y
 _atom_site_fract_z
 _atom_site_thermal_displace_type
 _atom_site_B_iso_or_equiv
 _atom_site_type_symbol
Hf1 1.0000000000 0.0000000000 0.0000000000 0.0000000000  Biso 1.0 Hf
Hf2 1.0000000000 0.0000000000 0.0000000000 0.5000000000  Biso 1.0 Hf
Hf3 1.0000000000 0.6666840112 0.3333680223 0.2500000000  Biso 1.0 Hf
Hf4 1.0000000000 0.3333159888 0.6666319777 0.7500000000  Biso 1.0 Hf
Pd5 1.0000000000 0.0000000000 0.5000000000 0.0000000000  Biso 1.0 Pd
Pd6 1.0000000000 0.5000000000 0.5000000000 0.0000000000  Biso 1.0 Pd
Pd7 1.0000000000 0.5000000000 0.0000000000 0.0000000000  Biso 1.0 Pd
Pd8 1.0000000000 0.0000000000 0.5000000000 0.5000000000  Biso 1.0 Pd
Pd9 1.0000000000 0.5000000000 0.5000000000 0.5000000000  Biso 1.0 Pd
Pd10 1.0000000000 0.5000000000 0.0000000000 0.5000000000  Biso 1.0 Pd
Pd11 1.0000000000 0.6636788664 0.8318472762 0.2500000000  Biso 1.0 Pd
Pd12 1.0000000000 0.1681684098 0.8318472762 0.2500000000  Biso 1.0 Pd
Pd13 1.0000000000 0.1681613226 0.3363226453 0.2500000000  Biso 1.0 Pd
Pd14 1.0000000000 0.3363211336 0.1681527238 0.7500000000  Biso 1.0 Pd
Pd15 1.0000000000 0.8318315902 0.1681527238 0.7500000000  Biso 1.0 Pd
Pd16 1.0000000000 0.8318386774 0.6636773547 0.7500000000  Biso 1.0 Pd
