# AFLOW.org Repositories
# Hf1Si2   [ORCC,ORCC,oS12] (STD_PRIM doi:
data_Hf1Si2
_pd_phase_name Hf1Si2
_cell_length_a  7.5250426588
_cell_length_b  7.5250426588
_cell_length_c  3.6596094545
_cell_angle_alpha  90.0000000000
_cell_angle_beta  90.0000000000
_cell_angle_gamma  151.6523241148
_symmetry_space_group_name_H-M  'P1'
_symmetry_Int_Tables_Number  1
loop_
_symmetry_equiv_pos_site_id
_symmetry_equiv_pos_as_xyz
  1  x,y,z
loop_
 _atom_site_label
 _atom_site_occupancy
 _atom_site_fract_x
 _atom_site_fract_y
 _atom_site_fract_z
 _atom_site_thermal_displace_type
 _atom_site_B_iso_or_equiv
 _atom_site_type_symbol
Hf1 1.0000000000 0.8945527836 0.1054472164 0.7500000000  Biso 1.0 Hf
Hf2 1.0000000000 0.1054472164 0.8945527836 0.2500000000  Biso 1.0 Hf
Si3 1.0000000000 0.2503019950 0.7496980050 0.7500000000  Biso 1.0 Si
Si4 1.0000000000 0.7496980050 0.2503019950 0.2500000000  Biso 1.0 Si
Si5 1.0000000000 0.5542428837 0.4457571163 0.7500000000  Biso 1.0 Si
Si6 1.0000000000 0.4457571163 0.5542428837 0.2500000000  Biso 1.0 Si
