# AFLOW.org Repositories
# Hf3Ni2Si3   [ORCC,ORCC,oS32] (STD_PRIM d
data_Hf3Ni2Si3
_pd_phase_name Hf3Ni2Si3
_cell_length_a  5.2675811110
_cell_length_b  5.2675811110
_cell_length_c  12.9266594855
_cell_angle_alpha  90.0000000000
_cell_angle_beta  90.0000000000
_cell_angle_gamma  137.3578050216
_symmetry_space_group_name_H-M  'P1'
_symmetry_Int_Tables_Number  1
loop_
_symmetry_equiv_pos_site_id
_symmetry_equiv_pos_as_xyz
  1  x,y,z
loop_
 _atom_site_label
 _atom_site_occupancy
 _atom_site_fract_x
 _atom_site_fract_y
 _atom_site_fract_z
 _atom_site_thermal_displace_type
 _atom_site_B_iso_or_equiv
 _atom_site_type_symbol
Hf1 1.0000000000 0.4264036003 0.5735963997 0.8820827095  Biso 1.0 Hf
Hf2 1.0000000000 0.5735963997 0.4264036003 0.3820827095  Biso 1.0 Hf
Hf3 1.0000000000 0.4264036003 0.5735963997 0.6179172905  Biso 1.0 Hf
Hf4 1.0000000000 0.5735963997 0.4264036003 0.1179172905  Biso 1.0 Hf
Hf5 1.0000000000 0.1328038471 0.8671961529 0.7500000000  Biso 1.0 Hf
Hf6 1.0000000000 0.8671961529 0.1328038471 0.2500000000  Biso 1.0 Hf
Ni7 1.0000000000 0.7186472728 0.2813527272 0.9113850259  Biso 1.0 Ni
Ni8 1.0000000000 0.2813527272 0.7186472728 0.4113850259  Biso 1.0 Ni
Ni9 1.0000000000 0.7186472728 0.2813527272 0.5886149741  Biso 1.0 Ni
Ni10 1.0000000000 0.2813527272 0.7186472728 0.0886149741  Biso 1.0 Ni
Si11 1.0000000000 0.1123480254 0.8876519746 0.9594838962  Biso 1.0 Si
Si12 1.0000000000 0.8876519746 0.1123480254 0.4594838962  Biso 1.0 Si
Si13 1.0000000000 0.1123480254 0.8876519746 0.5405161038  Biso 1.0 Si
Si14 1.0000000000 0.8876519746 0.1123480254 0.0405161038  Biso 1.0 Si
Si15 1.0000000000 0.8380890848 0.1619109152 0.7500000000  Biso 1.0 Si
Si16 1.0000000000 0.1619109152 0.8380890848 0.2500000000  Biso 1.0 Si
