# AFLOW.org Repositories
# Hf5Sn4   [HEX,HEX,hP18] (STD_PRIM doi:10
data_Hf5Sn4
_pd_phase_name Hf5Sn4
_cell_length_a  8.8178887656
_cell_length_b  8.8178887656
_cell_length_c  5.9496827749
_cell_angle_alpha  90.0000000000
_cell_angle_beta  90.0000000000
_cell_angle_gamma  120.0000000000
_symmetry_space_group_name_H-M  'P1'
_symmetry_Int_Tables_Number  1
loop_
_symmetry_equiv_pos_site_id
_symmetry_equiv_pos_as_xyz
  1  x,y,z
loop_
 _atom_site_label
 _atom_site_occupancy
 _atom_site_fract_x
 _atom_site_fract_y
 _atom_site_fract_z
 _atom_site_thermal_displace_type
 _atom_site_B_iso_or_equiv
 _atom_site_type_symbol
Hf1 1.0000000000 0.3333302520 0.6666697480 0.0000000000  Biso 1.0 Hf
Hf2 1.0000000000 0.6666697480 0.3333302520 0.5000000000  Biso 1.0 Hf
Hf3 1.0000000000 0.6666697480 0.3333302520 0.0000000000  Biso 1.0 Hf
Hf4 1.0000000000 0.3333302520 0.6666697480 0.5000000000  Biso 1.0 Hf
Hf5 1.0000000000 0.2834307159 0.0000000000 0.2500000000  Biso 1.0 Hf
Hf6 1.0000000000 0.0000000000 0.2834307159 0.2500000000  Biso 1.0 Hf
Hf7 1.0000000000 0.7165736521 0.7165736521 0.2500000000  Biso 1.0 Hf
Hf8 1.0000000000 0.7165692841 0.0000000000 0.7500000000  Biso 1.0 Hf
Hf9 1.0000000000 0.0000000000 0.7165692841 0.7500000000  Biso 1.0 Hf
Hf10 1.0000000000 0.2834263479 0.2834263479 0.7500000000  Biso 1.0 Hf
Sn11 1.0000000000 0.0000000000 0.0000000000 0.0000000000  Biso 1.0 Sn
Sn12 1.0000000000 0.0000000000 0.0000000000 0.5000000000  Biso 1.0 Sn
Sn13 1.0000000000 0.6147679593 0.0000000000 0.2500000000  Biso 1.0 Sn
Sn14 1.0000000000 0.0000000000 0.6147679593 0.2500000000  Biso 1.0 Sn
Sn15 1.0000000000 0.3852390918 0.3852390918 0.2500000000  Biso 1.0 Sn
Sn16 1.0000000000 0.3852320407 0.0000000000 0.7500000000  Biso 1.0 Sn
Sn17 1.0000000000 0.0000000000 0.3852320407 0.7500000000  Biso 1.0 Sn
Sn18 1.0000000000 0.6147609082 0.6147609082 0.7500000000  Biso 1.0 Sn
