# AFLOW.org Repositories
# Hf5Sb3Zn1   [HEX,HEX,hP18] (STD_PRIM doi
data_Hf5Sb3Zn1
_pd_phase_name Hf5Sb3Zn1
_cell_length_a  8.5925166846
_cell_length_b  8.5925166846
_cell_length_c  5.7781121762
_cell_angle_alpha  90.0000000000
_cell_angle_beta  90.0000000000
_cell_angle_gamma  120.0000000000
_symmetry_space_group_name_H-M  'P1'
_symmetry_Int_Tables_Number  1
loop_
_symmetry_equiv_pos_site_id
_symmetry_equiv_pos_as_xyz
  1  x,y,z
loop_
 _atom_site_label
 _atom_site_occupancy
 _atom_site_fract_x
 _atom_site_fract_y
 _atom_site_fract_z
 _atom_site_thermal_displace_type
 _atom_site_B_iso_or_equiv
 _atom_site_type_symbol
Hf1 1.0000000000 0.3333300139 0.6666699861 0.0000000000  Biso 1.0 Hf
Hf2 1.0000000000 0.6666699861 0.3333300139 0.5000000000  Biso 1.0 Hf
Hf3 1.0000000000 0.6666699861 0.3333300139 0.0000000000  Biso 1.0 Hf
Hf4 1.0000000000 0.3333300139 0.6666699861 0.5000000000  Biso 1.0 Hf
Hf5 1.0000000000 0.2693557498 0.0000000000 0.2500000000  Biso 1.0 Hf
Hf6 1.0000000000 0.0000000000 0.2693557498 0.2500000000  Biso 1.0 Hf
Hf7 1.0000000000 0.7306482977 0.7306482977 0.2500000000  Biso 1.0 Hf
Hf8 1.0000000000 0.7306442502 0.0000000000 0.7500000000  Biso 1.0 Hf
Hf9 1.0000000000 0.0000000000 0.7306442502 0.7500000000  Biso 1.0 Hf
Hf10 1.0000000000 0.2693517023 0.2693517023 0.7500000000  Biso 1.0 Hf
Sb11 1.0000000000 0.6147641869 0.0000000000 0.2500000000  Biso 1.0 Sb
Sb12 1.0000000000 0.0000000000 0.6147641869 0.2500000000  Biso 1.0 Sb
Sb13 1.0000000000 0.3852443114 0.3852443114 0.2500000000  Biso 1.0 Sb
Sb14 1.0000000000 0.3852358131 0.0000000000 0.7500000000  Biso 1.0 Sb
Sb15 1.0000000000 0.0000000000 0.3852358131 0.7500000000  Biso 1.0 Sb
Sb16 1.0000000000 0.6147556886 0.6147556886 0.7500000000  Biso 1.0 Sb
Zn17 1.0000000000 0.0000000000 0.0000000000 0.5000000000  Biso 1.0 Zn
Zn18 1.0000000000 0.0000000000 0.0000000000 0.0000000000  Biso 1.0 Zn
