# AFLOW.org Repositories
# Hf6Ni16Si7   [FCC,FCC,cF116] (STD_PRIM d
data_Hf6Ni16Si7
_pd_phase_name Hf6Ni16Si7
_cell_length_a  8.0212406505
_cell_length_b  8.0212406505
_cell_length_c  8.0212406505
_cell_angle_alpha  60.0000000000
_cell_angle_beta  60.0000000000
_cell_angle_gamma  60.0000000000
_symmetry_space_group_name_H-M  'P1'
_symmetry_Int_Tables_Number  1
loop_
_symmetry_equiv_pos_site_id
_symmetry_equiv_pos_as_xyz
  1  x,y,z
loop_
 _atom_site_label
 _atom_site_occupancy
 _atom_site_fract_x
 _atom_site_fract_y
 _atom_site_fract_z
 _atom_site_thermal_displace_type
 _atom_site_B_iso_or_equiv
 _atom_site_type_symbol
Hf1 1.0000000000 0.7930570811 0.2069429189 0.2069429189  Biso 1.0 Hf
Hf2 1.0000000000 0.2069429189 0.7930570811 0.7930570811  Biso 1.0 Hf
Hf3 1.0000000000 0.2069429189 0.7930570811 0.2069429189  Biso 1.0 Hf
Hf4 1.0000000000 0.7930570811 0.2069429189 0.7930570811  Biso 1.0 Hf
Hf5 1.0000000000 0.2069429189 0.2069429189 0.7930570811  Biso 1.0 Hf
Hf6 1.0000000000 0.7930570811 0.7930570811 0.2069429189  Biso 1.0 Hf
Ni7 1.0000000000 0.1680432566 0.1680432566 0.1680432566  Biso 1.0 Ni
Ni8 1.0000000000 0.1680432566 0.1680432566 0.4958702302  Biso 1.0 Ni
Ni9 1.0000000000 0.1680432566 0.4958702302 0.1680432566  Biso 1.0 Ni
Ni10 1.0000000000 0.4958702302 0.1680432566 0.1680432566  Biso 1.0 Ni
Ni11 1.0000000000 0.8319567434 0.8319567434 0.5041297698  Biso 1.0 Ni
Ni12 1.0000000000 0.8319567434 0.8319567434 0.8319567434  Biso 1.0 Ni
Ni13 1.0000000000 0.8319567434 0.5041297698 0.8319567434  Biso 1.0 Ni
Ni14 1.0000000000 0.5041297698 0.8319567434 0.8319567434  Biso 1.0 Ni
Ni15 1.0000000000 0.3819500481 0.3819500481 0.3819500481  Biso 1.0 Ni
Ni16 1.0000000000 0.3819500481 0.3819500481 0.8541498557  Biso 1.0 Ni
Ni17 1.0000000000 0.3819500481 0.8541498557 0.3819500481  Biso 1.0 Ni
Ni18 1.0000000000 0.8541498557 0.3819500481 0.3819500481  Biso 1.0 Ni
Ni19 1.0000000000 0.6180499519 0.6180499519 0.1458501443  Biso 1.0 Ni
Ni20 1.0000000000 0.6180499519 0.6180499519 0.6180499519  Biso 1.0 Ni
Ni21 1.0000000000 0.6180499519 0.1458501443 0.6180499519  Biso 1.0 Ni
Ni22 1.0000000000 0.1458501443 0.6180499519 0.6180499519  Biso 1.0 Ni
Si23 1.0000000000 0.5000000000 0.0000000000 0.0000000000  Biso 1.0 Si
Si24 1.0000000000 0.0000000000 0.5000000000 0.5000000000  Biso 1.0 Si
Si25 1.0000000000 0.0000000000 0.5000000000 0.0000000000  Biso 1.0 Si
Si26 1.0000000000 0.5000000000 0.0000000000 0.5000000000  Biso 1.0 Si
Si27 1.0000000000 0.0000000000 0.0000000000 0.5000000000  Biso 1.0 Si
Si28 1.0000000000 0.5000000000 0.5000000000 0.0000000000  Biso 1.0 Si
Si29 1.0000000000 0.5000000000 0.5000000000 0.5000000000  Biso 1.0 Si
