# AFLOW.org Repositories
# Hg11K1   [CUB,CUB,cP36] (STD_PRIM doi:10
data_Hg11K1
_pd_phase_name Hg11K1
_cell_length_a  10.2805558711
_cell_length_b  10.2805558711
_cell_length_c  10.2805558711
_cell_angle_alpha  90.0000000000
_cell_angle_beta  90.0000000000
_cell_angle_gamma  90.0000000000
_symmetry_space_group_name_H-M  'P1'
_symmetry_Int_Tables_Number  1
loop_
_symmetry_equiv_pos_site_id
_symmetry_equiv_pos_as_xyz
  1  x,y,z
loop_
 _atom_site_label
 _atom_site_occupancy
 _atom_site_fract_x
 _atom_site_fract_y
 _atom_site_fract_z
 _atom_site_thermal_displace_type
 _atom_site_B_iso_or_equiv
 _atom_site_type_symbol
Hg1 1.0000000000 0.5000000000 0.5000000000 0.5000000000  Biso 1.0 Hg
Hg2 1.0000000000 0.8466217329 0.8466217329 0.1533782671  Biso 1.0 Hg
Hg3 1.0000000000 0.1533782671 0.1533782671 0.1533782671  Biso 1.0 Hg
Hg4 1.0000000000 0.1533782671 0.8466217329 0.8466217329  Biso 1.0 Hg
Hg5 1.0000000000 0.8466217329 0.1533782671 0.8466217329  Biso 1.0 Hg
Hg6 1.0000000000 0.8466217329 0.8466217329 0.8466217329  Biso 1.0 Hg
Hg7 1.0000000000 0.1533782671 0.1533782671 0.8466217329  Biso 1.0 Hg
Hg8 1.0000000000 0.8466217329 0.1533782671 0.1533782671  Biso 1.0 Hg
Hg9 1.0000000000 0.1533782671 0.8466217329 0.1533782671  Biso 1.0 Hg
Hg10 1.0000000000 0.6549430439 0.6549430439 0.0000000000  Biso 1.0 Hg
Hg11 1.0000000000 0.3450569561 0.3450569561 0.0000000000  Biso 1.0 Hg
Hg12 1.0000000000 0.3450569561 0.6549430439 0.0000000000  Biso 1.0 Hg
Hg13 1.0000000000 0.6549430439 0.3450569561 0.0000000000  Biso 1.0 Hg
Hg14 1.0000000000 0.0000000000 0.6549430439 0.3450569561  Biso 1.0 Hg
Hg15 1.0000000000 0.0000000000 0.3450569561 0.6549430439  Biso 1.0 Hg
Hg16 1.0000000000 0.0000000000 0.3450569561 0.3450569561  Biso 1.0 Hg
Hg17 1.0000000000 0.0000000000 0.6549430439 0.6549430439  Biso 1.0 Hg
Hg18 1.0000000000 0.6549430439 0.0000000000 0.3450569561  Biso 1.0 Hg
Hg19 1.0000000000 0.3450569561 0.0000000000 0.6549430439  Biso 1.0 Hg
Hg20 1.0000000000 0.6549430439 0.0000000000 0.6549430439  Biso 1.0 Hg
Hg21 1.0000000000 0.3450569561 0.0000000000 0.3450569561  Biso 1.0 Hg
Hg22 1.0000000000 0.7328569098 0.7328569098 0.5000000000  Biso 1.0 Hg
Hg23 1.0000000000 0.2671430902 0.2671430902 0.5000000000  Biso 1.0 Hg
Hg24 1.0000000000 0.2671430902 0.7328569098 0.5000000000  Biso 1.0 Hg
Hg25 1.0000000000 0.7328569098 0.2671430902 0.5000000000  Biso 1.0 Hg
Hg26 1.0000000000 0.5000000000 0.7328569098 0.2671430902  Biso 1.0 Hg
Hg27 1.0000000000 0.5000000000 0.2671430902 0.7328569098  Biso 1.0 Hg
Hg28 1.0000000000 0.5000000000 0.2671430902 0.2671430902  Biso 1.0 Hg
Hg29 1.0000000000 0.5000000000 0.7328569098 0.7328569098  Biso 1.0 Hg
Hg30 1.0000000000 0.7328569098 0.5000000000 0.2671430902  Biso 1.0 Hg
Hg31 1.0000000000 0.2671430902 0.5000000000 0.7328569098  Biso 1.0 Hg
Hg32 1.0000000000 0.7328569098 0.5000000000 0.7328569098  Biso 1.0 Hg
Hg33 1.0000000000 0.2671430902 0.5000000000 0.2671430902  Biso 1.0 Hg
K34 1.0000000000 0.5000000000 0.0000000000 0.0000000000  Biso 1.0 K
K35 1.0000000000 0.0000000000 0.5000000000 0.0000000000  Biso 1.0 K
K36 1.0000000000 0.0000000000 0.0000000000 0.5000000000  Biso 1.0 K
