# AFLOW.org Repositories
# Hg11Rb1   [CUB,CUB,cP36] (STD_PRIM doi:1
data_Hg11Rb1
_pd_phase_name Hg11Rb1
_cell_length_a  10.3262841201
_cell_length_b  10.3262841201
_cell_length_c  10.3262841201
_cell_angle_alpha  90.0000000000
_cell_angle_beta  90.0000000000
_cell_angle_gamma  90.0000000000
_symmetry_space_group_name_H-M  'P1'
_symmetry_Int_Tables_Number  1
loop_
_symmetry_equiv_pos_site_id
_symmetry_equiv_pos_as_xyz
  1  x,y,z
loop_
 _atom_site_label
 _atom_site_occupancy
 _atom_site_fract_x
 _atom_site_fract_y
 _atom_site_fract_z
 _atom_site_thermal_displace_type
 _atom_site_B_iso_or_equiv
 _atom_site_type_symbol
Hg1 1.0000000000 0.5000000000 0.5000000000 0.5000000000  Biso 1.0 Hg
Hg2 1.0000000000 0.8465798604 0.8465798604 0.1534201396  Biso 1.0 Hg
Hg3 1.0000000000 0.1534201396 0.1534201396 0.1534201396  Biso 1.0 Hg
Hg4 1.0000000000 0.1534201396 0.8465798604 0.8465798604  Biso 1.0 Hg
Hg5 1.0000000000 0.8465798604 0.1534201396 0.8465798604  Biso 1.0 Hg
Hg6 1.0000000000 0.8465798604 0.8465798604 0.8465798604  Biso 1.0 Hg
Hg7 1.0000000000 0.1534201396 0.1534201396 0.8465798604  Biso 1.0 Hg
Hg8 1.0000000000 0.8465798604 0.1534201396 0.1534201396  Biso 1.0 Hg
Hg9 1.0000000000 0.1534201396 0.8465798604 0.1534201396  Biso 1.0 Hg
Hg10 1.0000000000 0.7316233389 0.5000000000 0.2683766611  Biso 1.0 Hg
Hg11 1.0000000000 0.2683766611 0.5000000000 0.2683766611  Biso 1.0 Hg
Hg12 1.0000000000 0.2683766611 0.5000000000 0.7316233389  Biso 1.0 Hg
Hg13 1.0000000000 0.7316233389 0.5000000000 0.7316233389  Biso 1.0 Hg
Hg14 1.0000000000 0.7316233389 0.7316233389 0.5000000000  Biso 1.0 Hg
Hg15 1.0000000000 0.7316233389 0.2683766611 0.5000000000  Biso 1.0 Hg
Hg16 1.0000000000 0.2683766611 0.2683766611 0.5000000000  Biso 1.0 Hg
Hg17 1.0000000000 0.2683766611 0.7316233389 0.5000000000  Biso 1.0 Hg
Hg18 1.0000000000 0.5000000000 0.7316233389 0.2683766611  Biso 1.0 Hg
Hg19 1.0000000000 0.5000000000 0.7316233389 0.7316233389  Biso 1.0 Hg
Hg20 1.0000000000 0.5000000000 0.2683766611 0.7316233389  Biso 1.0 Hg
Hg21 1.0000000000 0.5000000000 0.2683766611 0.2683766611  Biso 1.0 Hg
Hg22 1.0000000000 0.6543273829 0.6543273829 0.0000000000  Biso 1.0 Hg
Hg23 1.0000000000 0.3456726171 0.3456726171 0.0000000000  Biso 1.0 Hg
Hg24 1.0000000000 0.3456726171 0.6543273829 0.0000000000  Biso 1.0 Hg
Hg25 1.0000000000 0.6543273829 0.3456726171 0.0000000000  Biso 1.0 Hg
Hg26 1.0000000000 0.0000000000 0.6543273829 0.3456726171  Biso 1.0 Hg
Hg27 1.0000000000 0.0000000000 0.3456726171 0.6543273829  Biso 1.0 Hg
Hg28 1.0000000000 0.0000000000 0.3456726171 0.3456726171  Biso 1.0 Hg
Hg29 1.0000000000 0.0000000000 0.6543273829 0.6543273829  Biso 1.0 Hg
Hg30 1.0000000000 0.6543273829 0.0000000000 0.3456726171  Biso 1.0 Hg
Hg31 1.0000000000 0.3456726171 0.0000000000 0.6543273829  Biso 1.0 Hg
Hg32 1.0000000000 0.6543273829 0.0000000000 0.6543273829  Biso 1.0 Hg
Hg33 1.0000000000 0.3456726171 0.0000000000 0.3456726171  Biso 1.0 Hg
Rb34 1.0000000000 0.0000000000 0.0000000000 0.5000000000  Biso 1.0 Rb
Rb35 1.0000000000 0.5000000000 0.0000000000 0.0000000000  Biso 1.0 Rb
Rb36 1.0000000000 0.0000000000 0.5000000000 0.0000000000  Biso 1.0 Rb
