# AFLOW.org Repositories
# Hg1In2S4   [FCC,FCC,cF56] (STD_PRIM doi:
data_Hg1In2S4
_pd_phase_name Hg1In2S4
_cell_length_a  7.7986566053
_cell_length_b  7.7986566053
_cell_length_c  7.7986566053
_cell_angle_alpha  60.0000000000
_cell_angle_beta  60.0000000000
_cell_angle_gamma  60.0000000000
_symmetry_space_group_name_H-M  'P1'
_symmetry_Int_Tables_Number  1
loop_
_symmetry_equiv_pos_site_id
_symmetry_equiv_pos_as_xyz
  1  x,y,z
loop_
 _atom_site_label
 _atom_site_occupancy
 _atom_site_fract_x
 _atom_site_fract_y
 _atom_site_fract_z
 _atom_site_thermal_displace_type
 _atom_site_B_iso_or_equiv
 _atom_site_type_symbol
Hg1 1.0000000000 0.0000000000 0.0000000000 0.0000000000  Biso 1.0 Hg
Hg2 1.0000000000 0.2500000000 0.2500000000 0.2500000000  Biso 1.0 Hg
In3 1.0000000000 0.6250000000 0.6250000000 0.6250000000  Biso 1.0 In
In4 1.0000000000 0.1250000000 0.6250000000 0.6250000000  Biso 1.0 In
In5 1.0000000000 0.6250000000 0.6250000000 0.1250000000  Biso 1.0 In
In6 1.0000000000 0.6250000000 0.1250000000 0.6250000000  Biso 1.0 In
S7 1.0000000000 0.3857342851 0.3857342851 0.3857342851  Biso 1.0 S
S8 1.0000000000 0.8427971446 0.3857342851 0.3857342851  Biso 1.0 S
S9 1.0000000000 0.3857342851 0.3857342851 0.8427971446  Biso 1.0 S
S10 1.0000000000 0.3857342851 0.8427971446 0.3857342851  Biso 1.0 S
S11 1.0000000000 0.4072028554 0.8642657149 0.8642657149  Biso 1.0 S
S12 1.0000000000 0.8642657149 0.8642657149 0.8642657149  Biso 1.0 S
S13 1.0000000000 0.8642657149 0.8642657149 0.4072028554  Biso 1.0 S
S14 1.0000000000 0.8642657149 0.4072028554 0.8642657149  Biso 1.0 S
