# AFLOW.org Repositories
# Ho1Ir1Si1   [ORC,ORC,oP12] (STD_PRIM doi
data_Ho1Ir1Si1
_pd_phase_name Ho1Ir1Si1
_cell_length_a  4.2210994538
_cell_length_b  6.8300710018
_cell_length_c  7.3641447792
_cell_angle_alpha  90.0000000000
_cell_angle_beta  90.0000000000
_cell_angle_gamma  90.0000000000
_symmetry_space_group_name_H-M  'P1'
_symmetry_Int_Tables_Number  1
loop_
_symmetry_equiv_pos_site_id
_symmetry_equiv_pos_as_xyz
  1  x,y,z
loop_
 _atom_site_label
 _atom_site_occupancy
 _atom_site_fract_x
 _atom_site_fract_y
 _atom_site_fract_z
 _atom_site_thermal_displace_type
 _atom_site_B_iso_or_equiv
 _atom_site_type_symbol
Ho1 1.0000000000 0.2500000000 0.0000000000 0.3123309100  Biso 1.0 Ho
Ho2 1.0000000000 0.7500000000 0.4993425125 0.8123309100  Biso 1.0 Ho
Ho3 1.0000000000 0.7500000000 0.0000000000 0.6876690900  Biso 1.0 Ho
Ho4 1.0000000000 0.2500000000 0.5006574875 0.1876690900  Biso 1.0 Ho
Ir5 1.0000000000 0.2500000000 0.3436460448 0.5689065430  Biso 1.0 Ir
Ir6 1.0000000000 0.7500000000 0.1563539552 0.0689065430  Biso 1.0 Ir
Ir7 1.0000000000 0.7500000000 0.6563539552 0.4310934570  Biso 1.0 Ir
Ir8 1.0000000000 0.2500000000 0.8436460448 0.9310934570  Biso 1.0 Ir
Si9 1.0000000000 0.2500000000 0.7017204881 0.6073306069  Biso 1.0 Si
Si10 1.0000000000 0.7500000000 0.7982795119 0.1073306069  Biso 1.0 Si
Si11 1.0000000000 0.7500000000 0.2982795119 0.3926693931  Biso 1.0 Si
Si12 1.0000000000 0.2500000000 0.2017204881 0.8926693931  Biso 1.0 Si
