# AFLOW.org Repositories
# Ho1Re2   [HEX,HEX,hP12] (STD_PRIM doi:10
data_Ho1Re2
_pd_phase_name Ho1Re2
_cell_length_a  5.4279078782
_cell_length_b  5.4279078782
_cell_length_c  8.8258586458
_cell_angle_alpha  90.0000000000
_cell_angle_beta  90.0000000000
_cell_angle_gamma  120.0000000000
_symmetry_space_group_name_H-M  'P1'
_symmetry_Int_Tables_Number  1
loop_
_symmetry_equiv_pos_site_id
_symmetry_equiv_pos_as_xyz
  1  x,y,z
loop_
 _atom_site_label
 _atom_site_occupancy
 _atom_site_fract_x
 _atom_site_fract_y
 _atom_site_fract_z
 _atom_site_thermal_displace_type
 _atom_site_B_iso_or_equiv
 _atom_site_type_symbol
Ho1 1.0000000000 0.3333266408 0.6666733592 0.0618043661  Biso 1.0 Ho
Ho2 1.0000000000 0.6666733592 0.3333266408 0.5618043661  Biso 1.0 Ho
Ho3 1.0000000000 0.6666733592 0.3333266408 0.9381956339  Biso 1.0 Ho
Ho4 1.0000000000 0.3333266408 0.6666733592 0.4381956339  Biso 1.0 Ho
Re5 1.0000000000 0.0000000000 0.0000000000 0.0000000000  Biso 1.0 Re
Re6 1.0000000000 0.0000000000 0.0000000000 0.5000000000  Biso 1.0 Re
Re7 1.0000000000 0.8291757871 0.6583724126 0.2500000000  Biso 1.0 Re
Re8 1.0000000000 0.3416275874 0.1708242129 0.2500000000  Biso 1.0 Re
Re9 1.0000000000 0.8291842567 0.1708157433 0.2500000000  Biso 1.0 Re
Re10 1.0000000000 0.1708242129 0.3416275874 0.7500000000  Biso 1.0 Re
Re11 1.0000000000 0.6583724126 0.8291757871 0.7500000000  Biso 1.0 Re
Re12 1.0000000000 0.1708157433 0.8291842567 0.7500000000  Biso 1.0 Re
