# AFLOW.org Repositories
# Ho1Si1   [ORCC,ORCC,oS8] (STD_PRIM doi:1
data_Ho1Si1
_pd_phase_name Ho1Si1
_cell_length_a  5.6638679623
_cell_length_b  5.6638679623
_cell_length_c  3.8242129218
_cell_angle_alpha  90.0000000000
_cell_angle_beta  90.0000000000
_cell_angle_gamma  135.8525925752
_symmetry_space_group_name_H-M  'P1'
_symmetry_Int_Tables_Number  1
loop_
_symmetry_equiv_pos_site_id
_symmetry_equiv_pos_as_xyz
  1  x,y,z
loop_
 _atom_site_label
 _atom_site_occupancy
 _atom_site_fract_x
 _atom_site_fract_y
 _atom_site_fract_z
 _atom_site_thermal_displace_type
 _atom_site_B_iso_or_equiv
 _atom_site_type_symbol
Ho1 1.0000000000 0.1406747511 0.8593252489 0.7500000000  Biso 1.0 Ho
Ho2 1.0000000000 0.8593252489 0.1406747511 0.2500000000  Biso 1.0 Ho
Si3 1.0000000000 0.4231816142 0.5768183858 0.7500000000  Biso 1.0 Si
Si4 1.0000000000 0.5768183858 0.4231816142 0.2500000000  Biso 1.0 Si
