# AFLOW.org Repositories
# Ho5S7   [MCLC,MCLC1,mS24] (STD_PRIM doi:
data_Ho5S7
_pd_phase_name Ho5S7
_cell_length_a  6.6681836254
_cell_length_b  6.6681836254
_cell_length_c  11.5679512490
_cell_angle_alpha  76.0865045713
_cell_angle_beta  76.0865045713
_cell_angle_gamma  33.0108398296
_symmetry_space_group_name_H-M  'P1'
_symmetry_Int_Tables_Number  1
loop_
_symmetry_equiv_pos_site_id
_symmetry_equiv_pos_as_xyz
  1  x,y,z
loop_
 _atom_site_label
 _atom_site_occupancy
 _atom_site_fract_x
 _atom_site_fract_y
 _atom_site_fract_z
 _atom_site_thermal_displace_type
 _atom_site_B_iso_or_equiv
 _atom_site_type_symbol
Ho1 1.0000000000 0.0000000000 0.0000000000 0.0000000000  Biso 1.0 Ho
Ho2 1.0000000000 0.8880449317 0.8880449317 0.4213019809  Biso 1.0 Ho
Ho3 1.0000000000 0.1119550683 0.1119550683 0.5786980191  Biso 1.0 Ho
Ho4 1.0000000000 0.6997028992 0.6997028992 0.1872434894  Biso 1.0 Ho
Ho5 1.0000000000 0.3002971008 0.3002971008 0.8127565106  Biso 1.0 Ho
S6 1.0000000000 0.5000000000 0.5000000000 0.5000000000  Biso 1.0 S
S7 1.0000000000 0.3408540377 0.3408540377 0.0509831257  Biso 1.0 S
S8 1.0000000000 0.6591459623 0.6591459623 0.9490168743  Biso 1.0 S
S9 1.0000000000 0.0412137998 0.0412137998 0.2150041605  Biso 1.0 S
S10 1.0000000000 0.9587862002 0.9587862002 0.7849958395  Biso 1.0 S
S11 1.0000000000 0.7409990341 0.7409990341 0.6475516135  Biso 1.0 S
S12 1.0000000000 0.2590009659 0.2590009659 0.3524483865  Biso 1.0 S
