# AFLOW.org Repositories
# I6Rb2Te1   [TET,TET,tP18] (STD_PRIM doi:
data_I6Rb2Te1
_pd_phase_name I6Rb2Te1
_cell_length_a  8.3186980237
_cell_length_b  8.3186980237
_cell_length_c  12.1628912756
_cell_angle_alpha  90.0000000000
_cell_angle_beta  90.0000000000
_cell_angle_gamma  90.0000000000
_symmetry_space_group_name_H-M  'P1'
_symmetry_Int_Tables_Number  1
loop_
_symmetry_equiv_pos_site_id
_symmetry_equiv_pos_as_xyz
  1  x,y,z
loop_
 _atom_site_label
 _atom_site_occupancy
 _atom_site_fract_x
 _atom_site_fract_y
 _atom_site_fract_z
 _atom_site_thermal_displace_type
 _atom_site_B_iso_or_equiv
 _atom_site_type_symbol
I1 1.0000000000 0.0000000000 0.0000000000 0.2444046121  Biso 1.0 I
I2 1.0000000000 0.5000000000 0.5000000000 0.2555953879  Biso 1.0 I
I3 1.0000000000 0.0000000000 0.0000000000 0.7555953879  Biso 1.0 I
I4 1.0000000000 0.5000000000 0.5000000000 0.7444046121  Biso 1.0 I
I5 1.0000000000 0.2138585711 0.2861303776 0.0000000000  Biso 1.0 I
I6 1.0000000000 0.7861414289 0.7138696224 0.0000000000  Biso 1.0 I
I7 1.0000000000 0.7138696224 0.2138585711 0.0000000000  Biso 1.0 I
I8 1.0000000000 0.2861303776 0.7861414289 0.0000000000  Biso 1.0 I
I9 1.0000000000 0.2861414289 0.7861303776 0.5000000000  Biso 1.0 I
I10 1.0000000000 0.7138585711 0.2138696224 0.5000000000  Biso 1.0 I
I11 1.0000000000 0.7861303776 0.7138585711 0.5000000000  Biso 1.0 I
I12 1.0000000000 0.2138696224 0.2861414289 0.5000000000  Biso 1.0 I
Rb13 1.0000000000 0.0000000000 0.5000000000 0.2500000000  Biso 1.0 Rb
Rb14 1.0000000000 0.5000000000 0.0000000000 0.2500000000  Biso 1.0 Rb
Rb15 1.0000000000 0.0000000000 0.5000000000 0.7500000000  Biso 1.0 Rb
Rb16 1.0000000000 0.5000000000 0.0000000000 0.7500000000  Biso 1.0 Rb
Te17 1.0000000000 0.0000000000 0.0000000000 0.0000000000  Biso 1.0 Te
Te18 1.0000000000 0.5000000000 0.5000000000 0.5000000000  Biso 1.0 Te
