# AFLOW.org Repositories
# In14K3Mg20   [CUB,CUB,cP37] (STD_PRIM do
data_In14K3Mg20
_pd_phase_name In14K3Mg20
_cell_length_a  9.8148435429
_cell_length_b  9.8148435429
_cell_length_c  9.8148435429
_cell_angle_alpha  90.0000000000
_cell_angle_beta  90.0000000000
_cell_angle_gamma  90.0000000000
_symmetry_space_group_name_H-M  'P1'
_symmetry_Int_Tables_Number  1
loop_
_symmetry_equiv_pos_site_id
_symmetry_equiv_pos_as_xyz
  1  x,y,z
loop_
 _atom_site_label
 _atom_site_occupancy
 _atom_site_fract_x
 _atom_site_fract_y
 _atom_site_fract_z
 _atom_site_thermal_displace_type
 _atom_site_B_iso_or_equiv
 _atom_site_type_symbol
In1 1.0000000000 0.0000000000 0.0000000000 0.0000000000  Biso 1.0 In
In2 1.0000000000 0.0000000000 0.6513274117 0.3486725883  Biso 1.0 In
In3 1.0000000000 0.0000000000 0.3486725883 0.3486725883  Biso 1.0 In
In4 1.0000000000 0.0000000000 0.6513274117 0.6513274117  Biso 1.0 In
In5 1.0000000000 0.0000000000 0.3486725883 0.6513274117  Biso 1.0 In
In6 1.0000000000 0.6513274117 0.0000000000 0.3486725883  Biso 1.0 In
In7 1.0000000000 0.6513274117 0.0000000000 0.6513274117  Biso 1.0 In
In8 1.0000000000 0.3486725883 0.0000000000 0.3486725883  Biso 1.0 In
In9 1.0000000000 0.3486725883 0.0000000000 0.6513274117  Biso 1.0 In
In10 1.0000000000 0.6513274117 0.6513274117 0.0000000000  Biso 1.0 In
In11 1.0000000000 0.3486725883 0.6513274117 0.0000000000  Biso 1.0 In
In12 1.0000000000 0.6513274117 0.3486725883 0.0000000000  Biso 1.0 In
In13 1.0000000000 0.3486725883 0.3486725883 0.0000000000  Biso 1.0 In
In14 1.0000000000 0.5000000000 0.5000000000 0.5000000000  Biso 1.0 In
K15 1.0000000000 0.5000000000 0.0000000000 0.0000000000  Biso 1.0 K
K16 1.0000000000 0.0000000000 0.5000000000 0.0000000000  Biso 1.0 K
K17 1.0000000000 0.0000000000 0.0000000000 0.5000000000  Biso 1.0 K
Mg18 1.0000000000 0.5000000000 0.7349555587 0.2650444413  Biso 1.0 Mg
Mg19 1.0000000000 0.5000000000 0.2650444413 0.2650444413  Biso 1.0 Mg
Mg20 1.0000000000 0.5000000000 0.7349555587 0.7349555587  Biso 1.0 Mg
Mg21 1.0000000000 0.5000000000 0.2650444413 0.7349555587  Biso 1.0 Mg
Mg22 1.0000000000 0.7349555587 0.5000000000 0.2650444413  Biso 1.0 Mg
Mg23 1.0000000000 0.7349555587 0.5000000000 0.7349555587  Biso 1.0 Mg
Mg24 1.0000000000 0.2650444413 0.5000000000 0.2650444413  Biso 1.0 Mg
Mg25 1.0000000000 0.2650444413 0.5000000000 0.7349555587  Biso 1.0 Mg
Mg26 1.0000000000 0.7349555587 0.7349555587 0.5000000000  Biso 1.0 Mg
Mg27 1.0000000000 0.2650444413 0.7349555587 0.5000000000  Biso 1.0 Mg
Mg28 1.0000000000 0.7349555587 0.2650444413 0.5000000000  Biso 1.0 Mg
Mg29 1.0000000000 0.2650444413 0.2650444413 0.5000000000  Biso 1.0 Mg
Mg30 1.0000000000 0.8254213288 0.8254213288 0.1745786712  Biso 1.0 Mg
Mg31 1.0000000000 0.1745786712 0.1745786712 0.1745786712  Biso 1.0 Mg
Mg32 1.0000000000 0.1745786712 0.8254213288 0.8254213288  Biso 1.0 Mg
Mg33 1.0000000000 0.8254213288 0.1745786712 0.8254213288  Biso 1.0 Mg
Mg34 1.0000000000 0.8254213288 0.8254213288 0.8254213288  Biso 1.0 Mg
Mg35 1.0000000000 0.1745786712 0.1745786712 0.8254213288  Biso 1.0 Mg
Mg36 1.0000000000 0.8254213288 0.1745786712 0.1745786712  Biso 1.0 Mg
Mg37 1.0000000000 0.1745786712 0.8254213288 0.1745786712  Biso 1.0 Mg
