# AFLOW.org Repositories
# In1La1Pd2   [HEX,HEX,hP8] (STD_PRIM doi:
data_In1La1Pd2
_pd_phase_name In1La1Pd2
_cell_length_a  4.6907303342
_cell_length_b  4.6907303342
_cell_length_c  9.4534737959
_cell_angle_alpha  90.0000000000
_cell_angle_beta  90.0000000000
_cell_angle_gamma  120.0000000000
_symmetry_space_group_name_H-M  'P1'
_symmetry_Int_Tables_Number  1
loop_
_symmetry_equiv_pos_site_id
_symmetry_equiv_pos_as_xyz
  1  x,y,z
loop_
 _atom_site_label
 _atom_site_occupancy
 _atom_site_fract_x
 _atom_site_fract_y
 _atom_site_fract_z
 _atom_site_thermal_displace_type
 _atom_site_B_iso_or_equiv
 _atom_site_type_symbol
In1 1.0000000000 0.0000000000 0.0000000000 0.0000000000  Biso 1.0 In
In2 1.0000000000 0.0000000000 0.0000000000 0.5000000000  Biso 1.0 In
La3 1.0000000000 0.3333240172 0.6666759828 0.2500000000  Biso 1.0 La
La4 1.0000000000 0.6666759828 0.3333240172 0.7500000000  Biso 1.0 La
Pd5 1.0000000000 0.3333334661 0.6666665339 0.5778902392  Biso 1.0 Pd
Pd6 1.0000000000 0.6666665339 0.3333334661 0.0778902392  Biso 1.0 Pd
Pd7 1.0000000000 0.6666665339 0.3333334661 0.4221097608  Biso 1.0 Pd
Pd8 1.0000000000 0.3333334661 0.6666665339 0.9221097608  Biso 1.0 Pd
