# AFLOW.org Repositories
# In1Mg1Y1   [HEX,HEX,hP9] (STD_PRIM doi:1
data_In1Mg1Y1
_pd_phase_name In1Mg1Y1
_cell_length_a  7.5385456369
_cell_length_b  7.5385456369
_cell_length_c  4.6868991407
_cell_angle_alpha  90.0000000000
_cell_angle_beta  90.0000000000
_cell_angle_gamma  120.0000000000
_symmetry_space_group_name_H-M  'P1'
_symmetry_Int_Tables_Number  1
loop_
_symmetry_equiv_pos_site_id
_symmetry_equiv_pos_as_xyz
  1  x,y,z
loop_
 _atom_site_label
 _atom_site_occupancy
 _atom_site_fract_x
 _atom_site_fract_y
 _atom_site_fract_z
 _atom_site_thermal_displace_type
 _atom_site_B_iso_or_equiv
 _atom_site_type_symbol
In1 1.0000000000 0.6666632900 0.3333242486 0.5000000000  Biso 1.0 In
In2 1.0000000000 0.3333390414 0.6666757514 0.5000000000  Biso 1.0 In
In3 1.0000000000 0.0000000000 0.0000000000 0.0000000000  Biso 1.0 In
Mg4 1.0000000000 0.0000000000 0.7587019334 0.5000000000  Biso 1.0 Mg
Mg5 1.0000000000 0.2412980666 0.2412980666 0.5000000000  Biso 1.0 Mg
Mg6 1.0000000000 0.7587049290 0.0000000000 0.5000000000  Biso 1.0 Mg
Y7 1.0000000000 0.0000000000 0.4351505024 0.0000000000  Biso 1.0 Y
Y8 1.0000000000 0.5648494976 0.5648494976 0.0000000000  Biso 1.0 Y
Y9 1.0000000000 0.4351493820 0.0000000000 0.0000000000  Biso 1.0 Y
