# AFLOW.org Repositories
# In1Pt2Tb1   [HEX,HEX,hP8] (STD_PRIM doi:
data_In1Pt2Tb1
_pd_phase_name In1Pt2Tb1
_cell_length_a  4.5588873866
_cell_length_b  4.5588873866
_cell_length_c  9.0375507204
_cell_angle_alpha  90.0000000000
_cell_angle_beta  90.0000000000
_cell_angle_gamma  120.0000000000
_symmetry_space_group_name_H-M  'P1'
_symmetry_Int_Tables_Number  1
loop_
_symmetry_equiv_pos_site_id
_symmetry_equiv_pos_as_xyz
  1  x,y,z
loop_
 _atom_site_label
 _atom_site_occupancy
 _atom_site_fract_x
 _atom_site_fract_y
 _atom_site_fract_z
 _atom_site_thermal_displace_type
 _atom_site_B_iso_or_equiv
 _atom_site_type_symbol
In1 1.0000000000 0.0000000000 0.0000000000 0.0000000000  Biso 1.0 In
In2 1.0000000000 0.0000000000 0.0000000000 0.5000000000  Biso 1.0 In
Pt3 1.0000000000 0.6666708144 0.3333416288 0.5907284647  Biso 1.0 Pt
Pt4 1.0000000000 0.3333291856 0.6666583712 0.0907284647  Biso 1.0 Pt
Pt5 1.0000000000 0.3333291856 0.6666583712 0.4092715353  Biso 1.0 Pt
Pt6 1.0000000000 0.6666708144 0.3333416288 0.9092715353  Biso 1.0 Pt
Tb7 1.0000000000 0.6666669462 0.3333338925 0.2500000000  Biso 1.0 Tb
Tb8 1.0000000000 0.3333330538 0.6666661075 0.7500000000  Biso 1.0 Tb
