# AFLOW.org Repositories
# In1Rh1Tb4   [FCC,FCC,cF96] (STD_PRIM doi
data_In1Rh1Tb4
_pd_phase_name In1Rh1Tb4
_cell_length_a  9.6793884870
_cell_length_b  9.6793884870
_cell_length_c  9.6793884870
_cell_angle_alpha  60.0000000000
_cell_angle_beta  60.0000000000
_cell_angle_gamma  60.0000000000
_symmetry_space_group_name_H-M  'P1'
_symmetry_Int_Tables_Number  1
loop_
_symmetry_equiv_pos_site_id
_symmetry_equiv_pos_as_xyz
  1  x,y,z
loop_
 _atom_site_label
 _atom_site_occupancy
 _atom_site_fract_x
 _atom_site_fract_y
 _atom_site_fract_z
 _atom_site_thermal_displace_type
 _atom_site_B_iso_or_equiv
 _atom_site_type_symbol
In1 1.0000000000 0.4177741251 0.4177741251 0.7466776246  Biso 1.0 In
In2 1.0000000000 0.4177741251 0.7466776246 0.4177741251  Biso 1.0 In
In3 1.0000000000 0.4177741251 0.4177741251 0.4177741251  Biso 1.0 In
In4 1.0000000000 0.7466776246 0.4177741251 0.4177741251  Biso 1.0 In
Rh5 1.0000000000 0.8577091536 0.8577091536 0.4268725392  Biso 1.0 Rh
Rh6 1.0000000000 0.8577091536 0.4268725392 0.8577091536  Biso 1.0 Rh
Rh7 1.0000000000 0.8577091536 0.8577091536 0.8577091536  Biso 1.0 Rh
Rh8 1.0000000000 0.4268725392 0.8577091536 0.8577091536  Biso 1.0 Rh
Tb9 1.0000000000 0.0628377281 0.4371622719 0.0628377281  Biso 1.0 Tb
Tb10 1.0000000000 0.4371622719 0.0628377281 0.4371622719  Biso 1.0 Tb
Tb11 1.0000000000 0.4371622719 0.4371622719 0.0628377281  Biso 1.0 Tb
Tb12 1.0000000000 0.0628377281 0.0628377281 0.4371622719  Biso 1.0 Tb
Tb13 1.0000000000 0.4371622719 0.0628377281 0.0628377281  Biso 1.0 Tb
Tb14 1.0000000000 0.0628377281 0.4371622719 0.4371622719  Biso 1.0 Tb
Tb15 1.0000000000 0.1892089250 0.8107910750 0.1892089250  Biso 1.0 Tb
Tb16 1.0000000000 0.8107910750 0.1892089250 0.8107910750  Biso 1.0 Tb
Tb17 1.0000000000 0.8107910750 0.8107910750 0.1892089250  Biso 1.0 Tb
Tb18 1.0000000000 0.1892089250 0.1892089250 0.8107910750  Biso 1.0 Tb
Tb19 1.0000000000 0.8107910750 0.1892089250 0.1892089250  Biso 1.0 Tb
Tb20 1.0000000000 0.1892089250 0.8107910750 0.8107910750  Biso 1.0 Tb
Tb21 1.0000000000 0.6509242154 0.6509242154 0.0472273538  Biso 1.0 Tb
Tb22 1.0000000000 0.6509242154 0.0472273538 0.6509242154  Biso 1.0 Tb
Tb23 1.0000000000 0.6509242154 0.6509242154 0.6509242154  Biso 1.0 Tb
Tb24 1.0000000000 0.0472273538 0.6509242154 0.6509242154  Biso 1.0 Tb
