# AFLOW.org Repositories
# In1Th2   [BCT,BCT1,tI12] (STD_PRIM doi:1
data_In1Th2
_pd_phase_name In1Th2
_cell_length_a  6.4205686806
_cell_length_b  6.4205686806
_cell_length_c  6.4205686806
_cell_angle_alpha  103.2048947570
_cell_angle_beta  103.2048947570
_cell_angle_gamma  122.8970975575
_symmetry_space_group_name_H-M  'P1'
_symmetry_Int_Tables_Number  1
loop_
_symmetry_equiv_pos_site_id
_symmetry_equiv_pos_as_xyz
  1  x,y,z
loop_
 _atom_site_label
 _atom_site_occupancy
 _atom_site_fract_x
 _atom_site_fract_y
 _atom_site_fract_z
 _atom_site_thermal_displace_type
 _atom_site_B_iso_or_equiv
 _atom_site_type_symbol
In1 1.0000000000 0.7500000000 0.7500000000 0.0000000000  Biso 1.0 In
In2 1.0000000000 0.2500000000 0.2500000000 0.0000000000  Biso 1.0 In
Th3 1.0000000000 0.1553683417 0.6553683417 0.8107366834  Biso 1.0 Th
Th4 1.0000000000 0.8446316583 0.3446316583 0.1892633166  Biso 1.0 Th
Th5 1.0000000000 0.3446316583 0.1553683417 0.5000000000  Biso 1.0 Th
Th6 1.0000000000 0.6553683417 0.8446316583 0.5000000000  Biso 1.0 Th
