# AFLOW.org Repositories
# In2Mg1O4   [FCC,FCC,cF56] (STD_PRIM doi:
data_In2Mg1O4
_pd_phase_name In2Mg1O4
_cell_length_a  6.3793159408
_cell_length_b  6.3793159408
_cell_length_c  6.3793159408
_cell_angle_alpha  60.0000000000
_cell_angle_beta  60.0000000000
_cell_angle_gamma  60.0000000000
_symmetry_space_group_name_H-M  'P1'
_symmetry_Int_Tables_Number  1
loop_
_symmetry_equiv_pos_site_id
_symmetry_equiv_pos_as_xyz
  1  x,y,z
loop_
 _atom_site_label
 _atom_site_occupancy
 _atom_site_fract_x
 _atom_site_fract_y
 _atom_site_fract_z
 _atom_site_thermal_displace_type
 _atom_site_B_iso_or_equiv
 _atom_site_type_symbol
In1 1.0000000000 0.5000000000 0.5000000000 0.5000000000  Biso 1.0 In
In2 1.0000000000 0.0000000000 0.5000000000 0.5000000000  Biso 1.0 In
In3 1.0000000000 0.0000000000 0.5000000000 0.0000000000  Biso 1.0 In
In4 1.0000000000 0.0000000000 0.0000000000 0.5000000000  Biso 1.0 In
Mg5 1.0000000000 0.3750000000 0.8750000000 0.8750000000  Biso 1.0 Mg
Mg6 1.0000000000 0.6250000000 0.1250000000 0.1250000000  Biso 1.0 Mg
O7 1.0000000000 0.7688283051 0.7437238983 0.7437238983  Biso 1.0 O
O8 1.0000000000 0.2437238983 0.7437238983 0.7437238983  Biso 1.0 O
O9 1.0000000000 0.2437238983 0.7437238983 0.2688283051  Biso 1.0 O
O10 1.0000000000 0.2437238983 0.2688283051 0.7437238983  Biso 1.0 O
O11 1.0000000000 0.7562761017 0.2562761017 0.2562761017  Biso 1.0 O
O12 1.0000000000 0.2311716949 0.2562761017 0.2562761017  Biso 1.0 O
O13 1.0000000000 0.7562761017 0.2562761017 0.7311716949  Biso 1.0 O
O14 1.0000000000 0.7562761017 0.7311716949 0.2562761017  Biso 1.0 O
