# AFLOW.org Repositories
# In2O3   [BCC,BCC,cI80] (STD_PRIM doi:10.
data_In2O3
_pd_phase_name In2O3
_cell_length_a  8.8692935479
_cell_length_b  8.8692935479
_cell_length_c  8.8692935479
_cell_angle_alpha  109.4712206345
_cell_angle_beta  109.4712206345
_cell_angle_gamma  109.4712206345
_symmetry_space_group_name_H-M  'P1'
_symmetry_Int_Tables_Number  1
loop_
_symmetry_equiv_pos_site_id
_symmetry_equiv_pos_as_xyz
  1  x,y,z
loop_
 _atom_site_label
 _atom_site_occupancy
 _atom_site_fract_x
 _atom_site_fract_y
 _atom_site_fract_z
 _atom_site_thermal_displace_type
 _atom_site_B_iso_or_equiv
 _atom_site_type_symbol
In1 1.0000000000 0.0000000000 0.5000000000 0.0000000000  Biso 1.0 In
In2 1.0000000000 0.5000000000 0.5000000000 0.5000000000  Biso 1.0 In
In3 1.0000000000 0.5000000000 0.0000000000 0.0000000000  Biso 1.0 In
In4 1.0000000000 0.0000000000 0.0000000000 0.5000000000  Biso 1.0 In
In5 1.0000000000 0.7836193929 0.2500000000 0.5336193929  Biso 1.0 In
In6 1.0000000000 0.7163806071 0.7500000000 0.9663806071  Biso 1.0 In
In7 1.0000000000 0.7500000000 0.4663806071 0.2163806071  Biso 1.0 In
In8 1.0000000000 0.2500000000 0.0336193929 0.2836193929  Biso 1.0 In
In9 1.0000000000 0.4663806071 0.7163806071 0.2500000000  Biso 1.0 In
In10 1.0000000000 0.0336193929 0.7836193929 0.7500000000  Biso 1.0 In
In11 1.0000000000 0.2163806071 0.7500000000 0.4663806071  Biso 1.0 In
In12 1.0000000000 0.2836193929 0.2500000000 0.0336193929  Biso 1.0 In
In13 1.0000000000 0.2500000000 0.5336193929 0.7836193929  Biso 1.0 In
In14 1.0000000000 0.7500000000 0.9663806071 0.7163806071  Biso 1.0 In
In15 1.0000000000 0.5336193929 0.2836193929 0.7500000000  Biso 1.0 In
In16 1.0000000000 0.9663806071 0.2163806071 0.2500000000  Biso 1.0 In
O17 1.0000000000 0.9922756094 0.5366413694 0.7644864956  Biso 1.0 O
O18 1.0000000000 0.7721548739 0.7277891139 0.7355135044  Biso 1.0 O
O19 1.0000000000 0.5077243906 0.7722108861 0.0443657600  Biso 1.0 O
O20 1.0000000000 0.7278451261 0.9633586306 0.4556342400  Biso 1.0 O
O21 1.0000000000 0.7722108861 0.5443657600 0.0077243906  Biso 1.0 O
O22 1.0000000000 0.9633586306 0.9556342400 0.2278451261  Biso 1.0 O
O23 1.0000000000 0.5366413694 0.2644864956 0.4922756094  Biso 1.0 O
O24 1.0000000000 0.7277891139 0.2355135044 0.2721548739  Biso 1.0 O
O25 1.0000000000 0.2355135044 0.7721548739 0.2277891139  Biso 1.0 O
O26 1.0000000000 0.2644864956 0.9922756094 0.0366413694  Biso 1.0 O
O27 1.0000000000 0.9556342400 0.7278451261 0.4633586306  Biso 1.0 O
O28 1.0000000000 0.5443657600 0.5077243906 0.2722108861  Biso 1.0 O
O29 1.0000000000 0.0077243906 0.4633586306 0.2355135044  Biso 1.0 O
O30 1.0000000000 0.2278451261 0.2722108861 0.2644864956  Biso 1.0 O
O31 1.0000000000 0.4922756094 0.2277891139 0.9556342400  Biso 1.0 O
O32 1.0000000000 0.2721548739 0.0366413694 0.5443657600  Biso 1.0 O
O33 1.0000000000 0.2277891139 0.4556342400 0.9922756094  Biso 1.0 O
O34 1.0000000000 0.0366413694 0.0443657600 0.7721548739  Biso 1.0 O
O35 1.0000000000 0.4633586306 0.7355135044 0.5077243906  Biso 1.0 O
O36 1.0000000000 0.2722108861 0.7644864956 0.7278451261  Biso 1.0 O
O37 1.0000000000 0.7644864956 0.2278451261 0.7722108861  Biso 1.0 O
O38 1.0000000000 0.7355135044 0.0077243906 0.9633586306  Biso 1.0 O
O39 1.0000000000 0.0443657600 0.2721548739 0.5366413694  Biso 1.0 O
O40 1.0000000000 0.4556342400 0.4922756094 0.7277891139  Biso 1.0 O
