# AFLOW.org Repositories
# In2S6Zn3   [HEX,HEX,hP11] (STD_PRIM doi:
data_In2S6Zn3
_pd_phase_name In2S6Zn3
_cell_length_a  3.8770361848
_cell_length_b  3.8770361848
_cell_length_c  18.3357130712
_cell_angle_alpha  90.0000000000
_cell_angle_beta  90.0000000000
_cell_angle_gamma  120.0000000000
_symmetry_space_group_name_H-M  'P1'
_symmetry_Int_Tables_Number  1
loop_
_symmetry_equiv_pos_site_id
_symmetry_equiv_pos_as_xyz
  1  x,y,z
loop_
 _atom_site_label
 _atom_site_occupancy
 _atom_site_fract_x
 _atom_site_fract_y
 _atom_site_fract_z
 _atom_site_thermal_displace_type
 _atom_site_B_iso_or_equiv
 _atom_site_type_symbol
In1 1.0000000000 0.6666350215 0.3332700501 0.0406885858  Biso 1.0 In
In2 1.0000000000 0.3333232291 0.6666463819 0.4272122379  Biso 1.0 In
S3 1.0000000000 0.0000000000 0.0000000000 0.9832802930  Biso 1.0 S
S4 1.0000000000 0.0000000000 0.0000000000 0.3468260078  Biso 1.0 S
S5 1.0000000000 0.0000000000 0.0000000000 0.6631395327  Biso 1.0 S
S6 1.0000000000 0.6667010449 0.3334054662 0.1789689293  Biso 1.0 S
S7 1.0000000000 0.6666500980 0.3332994979 0.4989668310  Biso 1.0 S
S8 1.0000000000 0.6667064842 0.3334169129 0.8323471491  Biso 1.0 S
Zn9 1.0000000000 0.0000000000 0.0000000000 0.2247929491  Biso 1.0 Zn
Zn10 1.0000000000 0.0000000000 0.0000000000 0.7962409859  Biso 1.0 Zn
Zn11 1.0000000000 0.6666999471 0.3334058425 0.6319364985  Biso 1.0 Zn
