# AFLOW.org Repositories
# Ir1Sb1Te1   [CUB,CUB,cP12] (STD_PRIM doi
data_Ir1Sb1Te1
_pd_phase_name Ir1Sb1Te1
_cell_length_a  6.4616853788
_cell_length_b  6.4616853788
_cell_length_c  6.4616853788
_cell_angle_alpha  90.0000000000
_cell_angle_beta  90.0000000000
_cell_angle_gamma  90.0000000000
_symmetry_space_group_name_H-M  'P1'
_symmetry_Int_Tables_Number  1
loop_
_symmetry_equiv_pos_site_id
_symmetry_equiv_pos_as_xyz
  1  x,y,z
loop_
 _atom_site_label
 _atom_site_occupancy
 _atom_site_fract_x
 _atom_site_fract_y
 _atom_site_fract_z
 _atom_site_thermal_displace_type
 _atom_site_B_iso_or_equiv
 _atom_site_type_symbol
Ir1 1.0000000000 0.9980472107 0.9980472107 0.0019527893  Biso 1.0 Ir
Ir2 1.0000000000 0.5019527893 0.0019527893 0.5019527893  Biso 1.0 Ir
Ir3 1.0000000000 0.0019527893 0.4980472107 0.4980472107  Biso 1.0 Ir
Ir4 1.0000000000 0.4980472107 0.5019527893 0.9980472107  Biso 1.0 Ir
Sb5 1.0000000000 0.3725714953 0.3725714953 0.6274285047  Biso 1.0 Sb
Sb6 1.0000000000 0.1274285047 0.6274285047 0.1274285047  Biso 1.0 Sb
Sb7 1.0000000000 0.6274285047 0.8725714953 0.8725714953  Biso 1.0 Sb
Sb8 1.0000000000 0.8725714953 0.1274285047 0.3725714953  Biso 1.0 Sb
Te9 1.0000000000 0.6259032656 0.6259032656 0.3740967344  Biso 1.0 Te
Te10 1.0000000000 0.8740967344 0.3740967344 0.8740967344  Biso 1.0 Te
Te11 1.0000000000 0.3740967344 0.1259032656 0.1259032656  Biso 1.0 Te
Te12 1.0000000000 0.1259032656 0.8740967344 0.6259032656  Biso 1.0 Te
