# AFLOW.org Repositories
# Ir1Te2   [MCLC,MCLC1,mS18] (STD_PRIM doi
data_Ir1Te2
_pd_phase_name Ir1Te2
_cell_length_a  10.2486173009
_cell_length_b  10.2486173009
_cell_length_c  5.3857735492
_cell_angle_alpha  89.4649943861
_cell_angle_beta  89.4649943861
_cell_angle_gamma  22.7589856139
_symmetry_space_group_name_H-M  'P1'
_symmetry_Int_Tables_Number  1
loop_
_symmetry_equiv_pos_site_id
_symmetry_equiv_pos_as_xyz
  1  x,y,z
loop_
 _atom_site_label
 _atom_site_occupancy
 _atom_site_fract_x
 _atom_site_fract_y
 _atom_site_fract_z
 _atom_site_thermal_displace_type
 _atom_site_B_iso_or_equiv
 _atom_site_type_symbol
Ir1 1.0000000000 0.3402219376 0.3402219376 0.9989664011  Biso 1.0 Ir
Ir2 1.0000000000 0.6597780624 0.6597780624 0.0010335989  Biso 1.0 Ir
Ir3 1.0000000000 0.0000000000 0.0000000000 0.5000000000  Biso 1.0 Ir
Te4 1.0000000000 0.4556983038 0.4556983038 0.2222677619  Biso 1.0 Te
Te5 1.0000000000 0.5443016962 0.5443016962 0.7777322381  Biso 1.0 Te
Te6 1.0000000000 0.7800453450 0.7800453450 0.2412589388  Biso 1.0 Te
Te7 1.0000000000 0.2199546550 0.2199546550 0.7587410612  Biso 1.0 Te
Te8 1.0000000000 0.8789123110 0.8789123110 0.7143098401  Biso 1.0 Te
Te9 1.0000000000 0.1210876890 0.1210876890 0.2856901599  Biso 1.0 Te
