# AFLOW.org Repositories
# Ir1V1   [ORCC,ORCC,oS16] (STD_PRIM doi:1
data_Ir1V1
_pd_phase_name Ir1V1
_cell_length_a  5.3049505227
_cell_length_b  5.3049505227
_cell_length_c  3.9662888805
_cell_angle_alpha  90.0000000000
_cell_angle_beta  90.0000000000
_cell_angle_gamma  94.3097012208
_symmetry_space_group_name_H-M  'P1'
_symmetry_Int_Tables_Number  1
loop_
_symmetry_equiv_pos_site_id
_symmetry_equiv_pos_as_xyz
  1  x,y,z
loop_
 _atom_site_label
 _atom_site_occupancy
 _atom_site_fract_x
 _atom_site_fract_y
 _atom_site_fract_z
 _atom_site_thermal_displace_type
 _atom_site_B_iso_or_equiv
 _atom_site_type_symbol
Ir1 1.0000000000 0.0000000000 0.5000000000 0.0000000000  Biso 1.0 Ir
Ir2 1.0000000000 0.5000000000 0.0000000000 0.0000000000  Biso 1.0 Ir
Ir3 1.0000000000 0.7246033784 0.7246033784 0.5000000000  Biso 1.0 Ir
Ir4 1.0000000000 0.2753966216 0.2753966216 0.5000000000  Biso 1.0 Ir
V5 1.0000000000 0.0000000000 0.0000000000 0.0000000000  Biso 1.0 V
V6 1.0000000000 0.5000000000 0.5000000000 0.0000000000  Biso 1.0 V
V7 1.0000000000 0.2180434200 0.7819565800 0.5000000000  Biso 1.0 V
V8 1.0000000000 0.7819565800 0.2180434200 0.5000000000  Biso 1.0 V
