# AFLOW.org Repositories
# Ir2N1Zr4   [FCC,FCC,cF112] (STD_PRIM doi
data_Ir2N1Zr4
_pd_phase_name Ir2N1Zr4
_cell_length_a  8.8096600711
_cell_length_b  8.8096600711
_cell_length_c  8.8096600711
_cell_angle_alpha  60.0000000000
_cell_angle_beta  60.0000000000
_cell_angle_gamma  60.0000000000
_symmetry_space_group_name_H-M  'P1'
_symmetry_Int_Tables_Number  1
loop_
_symmetry_equiv_pos_site_id
_symmetry_equiv_pos_as_xyz
  1  x,y,z
loop_
 _atom_site_label
 _atom_site_occupancy
 _atom_site_fract_x
 _atom_site_fract_y
 _atom_site_fract_z
 _atom_site_thermal_displace_type
 _atom_site_B_iso_or_equiv
 _atom_site_type_symbol
Ir1 1.0000000000 0.7823527382 0.7823527382 0.6529417854  Biso 1.0 Ir
Ir2 1.0000000000 0.7823527382 0.1529417854 0.2823527382  Biso 1.0 Ir
Ir3 1.0000000000 0.1529417854 0.7823527382 0.2823527382  Biso 1.0 Ir
Ir4 1.0000000000 0.7823527382 0.7823527382 0.2823527382  Biso 1.0 Ir
Ir5 1.0000000000 0.2176472618 0.8470582146 0.7176472618  Biso 1.0 Ir
Ir6 1.0000000000 0.2176472618 0.2176472618 0.3470582146  Biso 1.0 Ir
Ir7 1.0000000000 0.8470582146 0.2176472618 0.7176472618  Biso 1.0 Ir
Ir8 1.0000000000 0.2176472618 0.2176472618 0.7176472618  Biso 1.0 Ir
N9 1.0000000000 0.5000000000 0.5000000000 0.5000000000  Biso 1.0 N
N10 1.0000000000 0.5000000000 0.0000000000 0.0000000000  Biso 1.0 N
N11 1.0000000000 0.0000000000 0.5000000000 0.0000000000  Biso 1.0 N
N12 1.0000000000 0.5000000000 0.5000000000 0.0000000000  Biso 1.0 N
Zr13 1.0000000000 0.0000000000 0.0000000000 0.0000000000  Biso 1.0 Zr
Zr14 1.0000000000 0.0000000000 0.5000000000 0.5000000000  Biso 1.0 Zr
Zr15 1.0000000000 0.5000000000 0.0000000000 0.5000000000  Biso 1.0 Zr
Zr16 1.0000000000 0.0000000000 0.0000000000 0.5000000000  Biso 1.0 Zr
Zr17 1.0000000000 0.5583428150 0.5583428150 0.6916571850  Biso 1.0 Zr
Zr18 1.0000000000 0.1916571850 0.1916571850 0.0583428150  Biso 1.0 Zr
Zr19 1.0000000000 0.1916571850 0.5583428150 0.6916571850  Biso 1.0 Zr
Zr20 1.0000000000 0.5583428150 0.1916571850 0.0583428150  Biso 1.0 Zr
Zr21 1.0000000000 0.5583428150 0.1916571850 0.6916571850  Biso 1.0 Zr
Zr22 1.0000000000 0.1916571850 0.5583428150 0.0583428150  Biso 1.0 Zr
Zr23 1.0000000000 0.4416571850 0.8083428150 0.9416571850  Biso 1.0 Zr
Zr24 1.0000000000 0.8083428150 0.4416571850 0.3083428150  Biso 1.0 Zr
Zr25 1.0000000000 0.8083428150 0.8083428150 0.9416571850  Biso 1.0 Zr
Zr26 1.0000000000 0.4416571850 0.4416571850 0.3083428150  Biso 1.0 Zr
Zr27 1.0000000000 0.4416571850 0.8083428150 0.3083428150  Biso 1.0 Zr
Zr28 1.0000000000 0.8083428150 0.4416571850 0.9416571850  Biso 1.0 Zr
