# AFLOW.org Repositories
# Ir3Mg3Si8   [FCC,FCC,cF112] (STD_PRIM do
data_Ir3Mg3Si8
_pd_phase_name Ir3Mg3Si8
_cell_length_a  8.6373110537
_cell_length_b  8.6373110537
_cell_length_c  8.6373110537
_cell_angle_alpha  60.0000000000
_cell_angle_beta  60.0000000000
_cell_angle_gamma  60.0000000000
_symmetry_space_group_name_H-M  'P1'
_symmetry_Int_Tables_Number  1
loop_
_symmetry_equiv_pos_site_id
_symmetry_equiv_pos_as_xyz
  1  x,y,z
loop_
 _atom_site_label
 _atom_site_occupancy
 _atom_site_fract_x
 _atom_site_fract_y
 _atom_site_fract_z
 _atom_site_thermal_displace_type
 _atom_site_B_iso_or_equiv
 _atom_site_type_symbol
Ir1 1.0000000000 0.7450434214 0.2549565786 0.7450434214  Biso 1.0 Ir
Ir2 1.0000000000 0.2549565786 0.7450434214 0.2549565786  Biso 1.0 Ir
Ir3 1.0000000000 0.2549565786 0.2549565786 0.7450434214  Biso 1.0 Ir
Ir4 1.0000000000 0.7450434214 0.7450434214 0.2549565786  Biso 1.0 Ir
Ir5 1.0000000000 0.2549565786 0.7450434214 0.7450434214  Biso 1.0 Ir
Ir6 1.0000000000 0.7450434214 0.2549565786 0.2549565786  Biso 1.0 Ir
Mg7 1.0000000000 0.3498170602 0.3498170602 0.9505488195  Biso 1.0 Mg
Mg8 1.0000000000 0.3498170602 0.9505488195 0.3498170602  Biso 1.0 Mg
Mg9 1.0000000000 0.3498170602 0.3498170602 0.3498170602  Biso 1.0 Mg
Mg10 1.0000000000 0.9505488195 0.3498170602 0.3498170602  Biso 1.0 Mg
Mg11 1.0000000000 0.0000000000 0.0000000000 0.0000000000  Biso 1.0 Mg
Mg12 1.0000000000 0.7500000000 0.7500000000 0.7500000000  Biso 1.0 Mg
Si13 1.0000000000 0.9712570192 0.3889396491 0.6685463125  Biso 1.0 Si
Si14 1.0000000000 0.9712570192 0.6685463125 0.3889396491  Biso 1.0 Si
Si15 1.0000000000 0.3889396491 0.9712570192 0.9712570192  Biso 1.0 Si
Si16 1.0000000000 0.6685463125 0.9712570192 0.9712570192  Biso 1.0 Si
Si17 1.0000000000 0.3889396491 0.9712570192 0.6685463125  Biso 1.0 Si
Si18 1.0000000000 0.6685463125 0.9712570192 0.3889396491  Biso 1.0 Si
Si19 1.0000000000 0.9712570192 0.6685463125 0.9712570192  Biso 1.0 Si
Si20 1.0000000000 0.9712570192 0.3889396491 0.9712570192  Biso 1.0 Si
Si21 1.0000000000 0.9712570192 0.9712570192 0.6685463125  Biso 1.0 Si
Si22 1.0000000000 0.9712570192 0.9712570192 0.3889396491  Biso 1.0 Si
Si23 1.0000000000 0.6685463125 0.3889396491 0.9712570192  Biso 1.0 Si
Si24 1.0000000000 0.3889396491 0.6685463125 0.9712570192  Biso 1.0 Si
Si25 1.0000000000 0.5743234043 0.5743234043 0.2770297870  Biso 1.0 Si
Si26 1.0000000000 0.5743234043 0.2770297870 0.5743234043  Biso 1.0 Si
Si27 1.0000000000 0.5743234043 0.5743234043 0.5743234043  Biso 1.0 Si
Si28 1.0000000000 0.2770297870 0.5743234043 0.5743234043  Biso 1.0 Si
