# AFLOW.org Repositories
# Ir4Sc11   [FCC,FCC,cF120] (STD_PRIM doi:
data_Ir4Sc11
_pd_phase_name Ir4Sc11
_cell_length_a  9.5986258702
_cell_length_b  9.5986258702
_cell_length_c  9.5986258702
_cell_angle_alpha  60.0000000000
_cell_angle_beta  60.0000000000
_cell_angle_gamma  60.0000000000
_symmetry_space_group_name_H-M  'P1'
_symmetry_Int_Tables_Number  1
loop_
_symmetry_equiv_pos_site_id
_symmetry_equiv_pos_as_xyz
  1  x,y,z
loop_
 _atom_site_label
 _atom_site_occupancy
 _atom_site_fract_x
 _atom_site_fract_y
 _atom_site_fract_z
 _atom_site_thermal_displace_type
 _atom_site_B_iso_or_equiv
 _atom_site_type_symbol
Ir1 1.0000000000 0.0000000000 0.0000000000 0.0000000000  Biso 1.0 Ir
Ir2 1.0000000000 0.5000000000 0.5000000000 0.5000000000  Biso 1.0 Ir
Ir3 1.0000000000 0.5000000000 0.0000000000 0.0000000000  Biso 1.0 Ir
Ir4 1.0000000000 0.0000000000 0.5000000000 0.5000000000  Biso 1.0 Ir
Ir5 1.0000000000 0.0000000000 0.0000000000 0.5000000000  Biso 1.0 Ir
Ir6 1.0000000000 0.5000000000 0.5000000000 0.0000000000  Biso 1.0 Ir
Ir7 1.0000000000 0.0000000000 0.5000000000 0.0000000000  Biso 1.0 Ir
Ir8 1.0000000000 0.5000000000 0.0000000000 0.5000000000  Biso 1.0 Ir
Sc9 1.0000000000 0.1971446722 0.8028553278 0.8028553278  Biso 1.0 Sc
Sc10 1.0000000000 0.8028553278 0.1971446722 0.1971446722  Biso 1.0 Sc
Sc11 1.0000000000 0.8028553278 0.8028553278 0.1971446722  Biso 1.0 Sc
Sc12 1.0000000000 0.1971446722 0.1971446722 0.8028553278  Biso 1.0 Sc
Sc13 1.0000000000 0.8028553278 0.1971446722 0.8028553278  Biso 1.0 Sc
Sc14 1.0000000000 0.1971446722 0.8028553278 0.1971446722  Biso 1.0 Sc
Sc15 1.0000000000 0.6170043556 0.6170043556 0.6170043556  Biso 1.0 Sc
Sc16 1.0000000000 0.6170043556 0.1489869333 0.6170043556  Biso 1.0 Sc
Sc17 1.0000000000 0.6170043556 0.6170043556 0.1489869333  Biso 1.0 Sc
Sc18 1.0000000000 0.1489869333 0.6170043556 0.6170043556  Biso 1.0 Sc
Sc19 1.0000000000 0.3829956444 0.8510130667 0.3829956444  Biso 1.0 Sc
Sc20 1.0000000000 0.3829956444 0.3829956444 0.3829956444  Biso 1.0 Sc
Sc21 1.0000000000 0.3829956444 0.3829956444 0.8510130667  Biso 1.0 Sc
Sc22 1.0000000000 0.8510130667 0.3829956444 0.3829956444  Biso 1.0 Sc
Sc23 1.0000000000 0.8420456650 0.8420456650 0.8420456650  Biso 1.0 Sc
Sc24 1.0000000000 0.8420456650 0.4738630050 0.8420456650  Biso 1.0 Sc
Sc25 1.0000000000 0.8420456650 0.8420456650 0.4738630050  Biso 1.0 Sc
Sc26 1.0000000000 0.4738630050 0.8420456650 0.8420456650  Biso 1.0 Sc
Sc27 1.0000000000 0.1579543350 0.5261369950 0.1579543350  Biso 1.0 Sc
Sc28 1.0000000000 0.1579543350 0.1579543350 0.1579543350  Biso 1.0 Sc
Sc29 1.0000000000 0.1579543350 0.1579543350 0.5261369950  Biso 1.0 Sc
Sc30 1.0000000000 0.5261369950 0.1579543350 0.1579543350  Biso 1.0 Sc
