# AFLOW.org Repositories
# Ir7Sc4Si6   [BCC,BCC,cI34] (STD_PRIM doi
data_Ir7Sc4Si6
_pd_phase_name Ir7Sc4Si6
_cell_length_a  6.9886850089
_cell_length_b  6.9886850089
_cell_length_c  6.9886850089
_cell_angle_alpha  109.4712206345
_cell_angle_beta  109.4712206345
_cell_angle_gamma  109.4712206345
_symmetry_space_group_name_H-M  'P1'
_symmetry_Int_Tables_Number  1
loop_
_symmetry_equiv_pos_site_id
_symmetry_equiv_pos_as_xyz
  1  x,y,z
loop_
 _atom_site_label
 _atom_site_occupancy
 _atom_site_fract_x
 _atom_site_fract_y
 _atom_site_fract_z
 _atom_site_thermal_displace_type
 _atom_site_B_iso_or_equiv
 _atom_site_type_symbol
Ir1 1.0000000000 0.2500000000 0.7500000000 0.5000000000  Biso 1.0 Ir
Ir2 1.0000000000 0.7500000000 0.2500000000 0.5000000000  Biso 1.0 Ir
Ir3 1.0000000000 0.7500000000 0.5000000000 0.2500000000  Biso 1.0 Ir
Ir4 1.0000000000 0.2500000000 0.5000000000 0.7500000000  Biso 1.0 Ir
Ir5 1.0000000000 0.5000000000 0.7500000000 0.2500000000  Biso 1.0 Ir
Ir6 1.0000000000 0.5000000000 0.2500000000 0.7500000000  Biso 1.0 Ir
Ir7 1.0000000000 0.0000000000 0.0000000000 0.0000000000  Biso 1.0 Ir
Sc8 1.0000000000 0.5000000000 0.0000000000 0.0000000000  Biso 1.0 Sc
Sc9 1.0000000000 0.5000000000 0.5000000000 0.5000000000  Biso 1.0 Sc
Sc10 1.0000000000 0.0000000000 0.0000000000 0.5000000000  Biso 1.0 Sc
Sc11 1.0000000000 0.0000000000 0.5000000000 0.0000000000  Biso 1.0 Sc
Si12 1.0000000000 0.3199536377 0.3199536377 0.0000000000  Biso 1.0 Si
Si13 1.0000000000 0.6800463623 0.6800463623 0.0000000000  Biso 1.0 Si
Si14 1.0000000000 0.3199536377 0.0000000000 0.3199536377  Biso 1.0 Si
Si15 1.0000000000 0.6800463623 0.0000000000 0.6800463623  Biso 1.0 Si
Si16 1.0000000000 0.0000000000 0.6800463623 0.6800463623  Biso 1.0 Si
Si17 1.0000000000 0.0000000000 0.3199536377 0.3199536377  Biso 1.0 Si
