# AFLOW.org Repositories
# K1P1Zn1   [HEX,HEX,hP6] (STD_PRIM doi:10
data_K1P1Zn1
_pd_phase_name K1P1Zn1
_cell_length_a  4.0870355583
_cell_length_b  4.0870355583
_cell_length_c  10.2424774465
_cell_angle_alpha  90.0000000000
_cell_angle_beta  90.0000000000
_cell_angle_gamma  120.0000000000
_symmetry_space_group_name_H-M  'P1'
_symmetry_Int_Tables_Number  1
loop_
_symmetry_equiv_pos_site_id
_symmetry_equiv_pos_as_xyz
  1  x,y,z
loop_
 _atom_site_label
 _atom_site_occupancy
 _atom_site_fract_x
 _atom_site_fract_y
 _atom_site_fract_z
 _atom_site_thermal_displace_type
 _atom_site_B_iso_or_equiv
 _atom_site_type_symbol
K1 1.0000000000 0.0000000000 0.0000000000 0.0000000000  Biso 1.0 K
K2 1.0000000000 0.0000000000 0.0000000000 0.5000000000  Biso 1.0 K
P3 1.0000000000 0.6666836172 0.3333672345 0.2500000000  Biso 1.0 P
P4 1.0000000000 0.3333163828 0.6666327655 0.7500000000  Biso 1.0 P
Zn5 1.0000000000 0.6666725310 0.3333450619 0.7500000000  Biso 1.0 Zn
Zn6 1.0000000000 0.3333274690 0.6666549381 0.2500000000  Biso 1.0 Zn
