# AFLOW.org Repositories
# K2Mg5Sn3   [BCT,BCT2,tI20] (STD_PRIM doi
data_K2Mg5Sn3
_pd_phase_name K2Mg5Sn3
_cell_length_a  12.4471139375
_cell_length_b  12.4471139375
_cell_length_c  12.4471139375
_cell_angle_alpha  156.8587951742
_cell_angle_beta  156.8587951742
_cell_angle_gamma  32.9570912068
_symmetry_space_group_name_H-M  'P1'
_symmetry_Int_Tables_Number  1
loop_
_symmetry_equiv_pos_site_id
_symmetry_equiv_pos_as_xyz
  1  x,y,z
loop_
 _atom_site_label
 _atom_site_occupancy
 _atom_site_fract_x
 _atom_site_fract_y
 _atom_site_fract_z
 _atom_site_thermal_displace_type
 _atom_site_B_iso_or_equiv
 _atom_site_type_symbol
K1 1.0000000000 0.1978156782 0.1978156782 0.0000000000  Biso 1.0 K
K2 1.0000000000 0.8021843218 0.8021843218 0.0000000000  Biso 1.0 K
Mg3 1.0000000000 0.0797172029 0.5797172029 0.5000000000  Biso 1.0 Mg
Mg4 1.0000000000 0.5797172029 0.0797172029 0.5000000000  Biso 1.0 Mg
Mg5 1.0000000000 0.9202827971 0.4202827971 0.5000000000  Biso 1.0 Mg
Mg6 1.0000000000 0.4202827971 0.9202827971 0.5000000000  Biso 1.0 Mg
Mg7 1.0000000000 0.5000000000 0.5000000000 0.0000000000  Biso 1.0 Mg
Sn8 1.0000000000 0.0000000000 0.0000000000 0.0000000000  Biso 1.0 Sn
Sn9 1.0000000000 0.6423299532 0.6423299532 0.0000000000  Biso 1.0 Sn
Sn10 1.0000000000 0.3576700468 0.3576700468 0.0000000000  Biso 1.0 Sn
