# AFLOW.org Repositories
# K2O3Pb2   [BCC,BCC,cI28] (STD_PRIM doi:1
data_K2O3Pb2
_pd_phase_name K2O3Pb2
_cell_length_a  7.4642860908
_cell_length_b  7.4642860908
_cell_length_c  7.4642860908
_cell_angle_alpha  109.4712206345
_cell_angle_beta  109.4712206345
_cell_angle_gamma  109.4712206345
_symmetry_space_group_name_H-M  'P1'
_symmetry_Int_Tables_Number  1
loop_
_symmetry_equiv_pos_site_id
_symmetry_equiv_pos_as_xyz
  1  x,y,z
loop_
 _atom_site_label
 _atom_site_occupancy
 _atom_site_fract_x
 _atom_site_fract_y
 _atom_site_fract_z
 _atom_site_thermal_displace_type
 _atom_site_B_iso_or_equiv
 _atom_site_type_symbol
K1 1.0000000000 0.0474187775 0.0474187775 0.0474187775  Biso 1.0 K
K2 1.0000000000 0.4525812225 0.5000000000 0.0000000000  Biso 1.0 K
K3 1.0000000000 0.5000000000 0.0000000000 0.4525812225  Biso 1.0 K
K4 1.0000000000 0.0000000000 0.4525812225 0.5000000000  Biso 1.0 K
O5 1.0000000000 0.2900894559 0.2500000000 0.5400894559  Biso 1.0 O
O6 1.0000000000 0.2099105441 0.7500000000 0.9599105441  Biso 1.0 O
O7 1.0000000000 0.5400894559 0.2900894559 0.2500000000  Biso 1.0 O
O8 1.0000000000 0.9599105441 0.2099105441 0.7500000000  Biso 1.0 O
O9 1.0000000000 0.2500000000 0.5400894559 0.2900894559  Biso 1.0 O
O10 1.0000000000 0.7500000000 0.9599105441 0.2099105441  Biso 1.0 O
Pb11 1.0000000000 0.5099559780 0.5099559780 0.5099559780  Biso 1.0 Pb
Pb12 1.0000000000 0.9900440220 0.5000000000 0.0000000000  Biso 1.0 Pb
Pb13 1.0000000000 0.5000000000 0.0000000000 0.9900440220  Biso 1.0 Pb
Pb14 1.0000000000 0.0000000000 0.9900440220 0.5000000000  Biso 1.0 Pb
