# AFLOW.org Repositories
# K2S1   [ORCC,ORCC,oS12] (STD_PRIM doi:10
data_K2S1
_pd_phase_name K2S1
_cell_length_a  5.3074212868
_cell_length_b  5.3074212868
_cell_length_c  7.2936356990
_cell_angle_alpha  90.0000000000
_cell_angle_beta  90.0000000000
_cell_angle_gamma  119.8754658751
_symmetry_space_group_name_H-M  'P1'
_symmetry_Int_Tables_Number  1
loop_
_symmetry_equiv_pos_site_id
_symmetry_equiv_pos_as_xyz
  1  x,y,z
loop_
 _atom_site_label
 _atom_site_occupancy
 _atom_site_fract_x
 _atom_site_fract_y
 _atom_site_fract_z
 _atom_site_thermal_displace_type
 _atom_site_B_iso_or_equiv
 _atom_site_type_symbol
K1 1.0000000000 0.0000000000 0.0000000000 0.0000000000  Biso 1.0 K
K2 1.0000000000 0.0000000000 0.0000000000 0.5000000000  Biso 1.0 K
K3 1.0000000000 0.6668493469 0.3336986938 0.7500000000  Biso 1.0 K
K4 1.0000000000 0.3331506531 0.6663013062 0.2500000000  Biso 1.0 K
S5 1.0000000000 0.3344533148 0.6689066295 0.7500000000  Biso 1.0 S
S6 1.0000000000 0.6655466852 0.3310933705 0.2500000000  Biso 1.0 S
