# AFLOW.org Repositories
# La1O4P1   [BCT,BCT1,tI24] (STD_PRIM doi:
data_La1O4P1
_pd_phase_name La1O4P1
_cell_length_a  6.0875645761
_cell_length_b  6.0875645761
_cell_length_c  6.0875645761
_cell_angle_alpha  105.9699290329
_cell_angle_beta  105.9699290329
_cell_angle_gamma  116.7266430940
_symmetry_space_group_name_H-M  'P1'
_symmetry_Int_Tables_Number  1
loop_
_symmetry_equiv_pos_site_id
_symmetry_equiv_pos_as_xyz
  1  x,y,z
loop_
 _atom_site_label
 _atom_site_occupancy
 _atom_site_fract_x
 _atom_site_fract_y
 _atom_site_fract_z
 _atom_site_thermal_displace_type
 _atom_site_B_iso_or_equiv
 _atom_site_type_symbol
La1 1.0000000000 0.1250000000 0.3750000000 0.2500000000  Biso 1.0 La
La2 1.0000000000 0.8750000000 0.6250000000 0.7500000000  Biso 1.0 La
O3 1.0000000000 0.2252911126 0.1431725179 0.9178814053  Biso 1.0 O
O4 1.0000000000 0.2252911126 0.8074097073 0.5821185947  Biso 1.0 O
O5 1.0000000000 0.6431725179 0.7252911126 0.4178814053  Biso 1.0 O
O6 1.0000000000 0.3074097073 0.7252911126 0.0821185947  Biso 1.0 O
O7 1.0000000000 0.7747088874 0.1925902927 0.4178814053  Biso 1.0 O
O8 1.0000000000 0.7747088874 0.8568274821 0.0821185947  Biso 1.0 O
O9 1.0000000000 0.3568274821 0.2747088874 0.5821185947  Biso 1.0 O
O10 1.0000000000 0.6925902927 0.2747088874 0.9178814053  Biso 1.0 O
P11 1.0000000000 0.3750000000 0.1250000000 0.7500000000  Biso 1.0 P
P12 1.0000000000 0.6250000000 0.8750000000 0.2500000000  Biso 1.0 P
