# AFLOW.org Repositories
# La4Mg1Ru1   [FCC,FCC,cF96] (STD_PRIM doi
data_La4Mg1Ru1
_pd_phase_name La4Mg1Ru1
_cell_length_a  10.2302373958
_cell_length_b  10.2302373958
_cell_length_c  10.2302373958
_cell_angle_alpha  60.0000000000
_cell_angle_beta  60.0000000000
_cell_angle_gamma  60.0000000000
_symmetry_space_group_name_H-M  'P1'
_symmetry_Int_Tables_Number  1
loop_
_symmetry_equiv_pos_site_id
_symmetry_equiv_pos_as_xyz
  1  x,y,z
loop_
 _atom_site_label
 _atom_site_occupancy
 _atom_site_fract_x
 _atom_site_fract_y
 _atom_site_fract_z
 _atom_site_thermal_displace_type
 _atom_site_B_iso_or_equiv
 _atom_site_type_symbol
La1 1.0000000000 0.0610416193 0.0610416193 0.4389583807  Biso 1.0 La
La2 1.0000000000 0.4389583807 0.4389583806 0.0610416193  Biso 1.0 La
La3 1.0000000000 0.0610416193 0.4389583806 0.0610416193  Biso 1.0 La
La4 1.0000000000 0.4389583807 0.0610416193 0.4389583807  Biso 1.0 La
La5 1.0000000000 0.0610416193 0.4389583807 0.4389583807  Biso 1.0 La
La6 1.0000000000 0.4389583807 0.0610416193 0.0610416193  Biso 1.0 La
La7 1.0000000000 0.1882151584 0.1882151584 0.8117848416  Biso 1.0 La
La8 1.0000000000 0.8117848416 0.8117848416 0.1882151584  Biso 1.0 La
La9 1.0000000000 0.1882151584 0.8117848416 0.1882151584  Biso 1.0 La
La10 1.0000000000 0.8117848416 0.1882151584 0.8117848416  Biso 1.0 La
La11 1.0000000000 0.1882151584 0.8117848416 0.8117848416  Biso 1.0 La
La12 1.0000000000 0.8117848416 0.1882151584 0.1882151584  Biso 1.0 La
La13 1.0000000000 0.0331618869 0.6556127044 0.6556127044  Biso 1.0 La
La14 1.0000000000 0.6556127044 0.6556127043 0.6556127044  Biso 1.0 La
La15 1.0000000000 0.6556127044 0.6556127044 0.0331618869  Biso 1.0 La
La16 1.0000000000 0.6556127044 0.0331618869 0.6556127044  Biso 1.0 La
Mg17 1.0000000000 0.7337991234 0.4220669588 0.4220669589  Biso 1.0 Mg
Mg18 1.0000000000 0.4220669589 0.4220669588 0.4220669589  Biso 1.0 Mg
Mg19 1.0000000000 0.4220669589 0.4220669588 0.7337991234  Biso 1.0 Mg
Mg20 1.0000000000 0.4220669589 0.7337991234 0.4220669589  Biso 1.0 Mg
Ru21 1.0000000000 0.4131786406 0.8622737865 0.8622737865  Biso 1.0 Ru
Ru22 1.0000000000 0.8622737865 0.8622737865 0.8622737865  Biso 1.0 Ru
Ru23 1.0000000000 0.8622737865 0.8622737865 0.4131786406  Biso 1.0 Ru
Ru24 1.0000000000 0.8622737865 0.4131786405 0.8622737865  Biso 1.0 Ru
