# AFLOW.org Repositories
# Li1   [HEX,HEX,hP2] (STD_PRIM doi:10.101
data_Li1
_pd_phase_name Li1
_cell_length_a  3.0565568414
_cell_length_b  3.0565568414
_cell_length_c  5.0106550674
_cell_angle_alpha  90.0000000000
_cell_angle_beta  90.0000000000
_cell_angle_gamma  120.0000000000
_symmetry_space_group_name_H-M  'P1'
_symmetry_Int_Tables_Number  1
loop_
_symmetry_equiv_pos_site_id
_symmetry_equiv_pos_as_xyz
  1  x,y,z
loop_
 _atom_site_label
 _atom_site_occupancy
 _atom_site_fract_x
 _atom_site_fract_y
 _atom_site_fract_z
 _atom_site_thermal_displace_type
 _atom_site_B_iso_or_equiv
 _atom_site_type_symbol
Li1 1.0000000000 0.3333911997 0.6666955999 0.2500000000  Biso 1.0 Li
Li2 1.0000000000 0.6666088003 0.3333044001 0.7500000000  Biso 1.0 Li
