# AFLOW.org Repositories
# Li1O3Sb1   [ORC,ORC,oP20] (STD_PRIM doi:
data_Li1O3Sb1
_pd_phase_name Li1O3Sb1
_cell_length_a  4.9887260826
_cell_length_b  5.2710656800
_cell_length_c  8.6061154431
_cell_angle_alpha  90.0000000000
_cell_angle_beta  90.0000000000
_cell_angle_gamma  90.0000000000
_symmetry_space_group_name_H-M  'P1'
_symmetry_Int_Tables_Number  1
loop_
_symmetry_equiv_pos_site_id
_symmetry_equiv_pos_as_xyz
  1  x,y,z
loop_
 _atom_site_label
 _atom_site_occupancy
 _atom_site_fract_x
 _atom_site_fract_y
 _atom_site_fract_z
 _atom_site_thermal_displace_type
 _atom_site_B_iso_or_equiv
 _atom_site_type_symbol
Li1 1.0000000000 0.0000000000 0.2500000000 0.3056957953  Biso 1.0 Li
Li2 1.0000000000 0.5000000000 0.2500000000 0.1943042047  Biso 1.0 Li
Li3 1.0000000000 0.0000000000 0.7500000000 0.6943042047  Biso 1.0 Li
Li4 1.0000000000 0.5000000000 0.7500000000 0.8056957953  Biso 1.0 Li
O5 1.0000000000 0.2500000000 0.4092351400 0.7500000000  Biso 1.0 O
O6 1.0000000000 0.7500000000 0.0907648600 0.7500000000  Biso 1.0 O
O7 1.0000000000 0.7500000000 0.5907648600 0.2500000000  Biso 1.0 O
O8 1.0000000000 0.2500000000 0.9092351400 0.2500000000  Biso 1.0 O
O9 1.0000000000 0.2050596025 0.9244323846 0.9182718698  Biso 1.0 O
O10 1.0000000000 0.7949403975 0.5755676154 0.9182718698  Biso 1.0 O
O11 1.0000000000 0.7050596025 0.5755676154 0.5817281302  Biso 1.0 O
O12 1.0000000000 0.2949403975 0.9244323846 0.5817281302  Biso 1.0 O
O13 1.0000000000 0.7949403975 0.0755676154 0.0817281302  Biso 1.0 O
O14 1.0000000000 0.2050596025 0.4244323846 0.0817281302  Biso 1.0 O
O15 1.0000000000 0.2949403975 0.4244323846 0.4182718698  Biso 1.0 O
O16 1.0000000000 0.7050596025 0.0755676154 0.4182718698  Biso 1.0 O
Sb17 1.0000000000 0.0000000000 0.2500000000 0.9053325282  Biso 1.0 Sb
Sb18 1.0000000000 0.5000000000 0.2500000000 0.5946674718  Biso 1.0 Sb
Sb19 1.0000000000 0.0000000000 0.7500000000 0.0946674718  Biso 1.0 Sb
Sb20 1.0000000000 0.5000000000 0.7500000000 0.4053325282  Biso 1.0 Sb
