# AFLOW.org Repositories
# Li2O5Si2   [ORCC,ORCC,oS36] (STD_PRIM do
data_Li2O5Si2
_pd_phase_name Li2O5Si2
_cell_length_a  7.9916695356
_cell_length_b  7.9916695356
_cell_length_c  4.8338950766
_cell_angle_alpha  90.0000000000
_cell_angle_beta  90.0000000000
_cell_angle_gamma  136.7635058508
_symmetry_space_group_name_H-M  'P1'
_symmetry_Int_Tables_Number  1
loop_
_symmetry_equiv_pos_site_id
_symmetry_equiv_pos_as_xyz
  1  x,y,z
loop_
 _atom_site_label
 _atom_site_occupancy
 _atom_site_fract_x
 _atom_site_fract_y
 _atom_site_fract_z
 _atom_site_thermal_displace_type
 _atom_site_B_iso_or_equiv
 _atom_site_type_symbol
Li1 1.0000000000 0.5917510023 0.7079222355 0.5942915191  Biso 1.0 Li
Li2 1.0000000000 0.7079222355 0.5917510023 0.0942915191  Biso 1.0 Li
Li3 1.0000000000 0.2860066987 0.4022536637 0.0940983456  Biso 1.0 Li
Li4 1.0000000000 0.4022536637 0.2860066987 0.5940983456  Biso 1.0 Li
O5 1.0000000000 0.4963966675 0.9958692998 0.0357091192  Biso 1.0 O
O6 1.0000000000 0.9958692998 0.4963966675 0.5357091192  Biso 1.0 O
O7 1.0000000000 0.7650166496 0.0424664291 0.4288372588  Biso 1.0 O
O8 1.0000000000 0.0424664291 0.7650166496 0.9288372588  Biso 1.0 O
O9 1.0000000000 0.9511819884 0.2288184946 0.9287650085  Biso 1.0 O
O10 1.0000000000 0.2288184946 0.9511819884 0.4287650085  Biso 1.0 O
O11 1.0000000000 0.5959153604 0.7394634195 0.0018383634  Biso 1.0 O
O12 1.0000000000 0.7394634195 0.5959153604 0.5018383634  Biso 1.0 O
O13 1.0000000000 0.2542054086 0.3985288292 0.5017295980  Biso 1.0 O
O14 1.0000000000 0.3985288292 0.2542054086 0.0017295980  Biso 1.0 O
Si15 1.0000000000 0.6927443535 0.9900713388 0.0939850486  Biso 1.0 Si
Si16 1.0000000000 0.9900713388 0.6927443535 0.5939850486  Biso 1.0 Si
Si17 1.0000000000 0.0031334648 0.3008546963 0.5937457389  Biso 1.0 Si
Si18 1.0000000000 0.3008546963 0.0031334648 0.0937457389  Biso 1.0 Si
