# AFLOW.org Repositories
# Mg1O1   [HEX,HEX,hP4] (STD_PRIM doi:10.1
data_Mg1O1
_pd_phase_name Mg1O1
_cell_length_a  3.3245334941
_cell_length_b  3.3245334941
_cell_length_c  5.1007150499
_cell_angle_alpha  90.0000000000
_cell_angle_beta  90.0000000000
_cell_angle_gamma  120.0000000000
_symmetry_space_group_name_H-M  'P1'
_symmetry_Int_Tables_Number  1
loop_
_symmetry_equiv_pos_site_id
_symmetry_equiv_pos_as_xyz
  1  x,y,z
loop_
 _atom_site_label
 _atom_site_occupancy
 _atom_site_fract_x
 _atom_site_fract_y
 _atom_site_fract_z
 _atom_site_thermal_displace_type
 _atom_site_B_iso_or_equiv
 _atom_site_type_symbol
Mg1 1.0000000000 0.3333615107 0.6666807553 0.0000000000  Biso 1.0 Mg
Mg2 1.0000000000 0.6666384893 0.3333192447 0.5001289793  Biso 1.0 Mg
O3 1.0000000000 0.3333667302 0.6666833651 0.3944410207  Biso 1.0 O
O4 1.0000000000 0.6666332698 0.3333166349 0.8944410207  Biso 1.0 O
