# AFLOW.org Repositories
# Mg1O3Se1   [ORC,ORC,oP20] (STD_PRIM doi:
data_Mg1O3Se1
_pd_phase_name Mg1O3Se1
_cell_length_a  5.0747982631
_cell_length_b  5.9896433232
_cell_length_c  7.7678306533
_cell_angle_alpha  90.0000000000
_cell_angle_beta  90.0000000000
_cell_angle_gamma  90.0000000000
_symmetry_space_group_name_H-M  'P1'
_symmetry_Int_Tables_Number  1
loop_
_symmetry_equiv_pos_site_id
_symmetry_equiv_pos_as_xyz
  1  x,y,z
loop_
 _atom_site_label
 _atom_site_occupancy
 _atom_site_fract_x
 _atom_site_fract_y
 _atom_site_fract_z
 _atom_site_thermal_displace_type
 _atom_site_B_iso_or_equiv
 _atom_site_type_symbol
Mg1 1.0000000000 0.5000000000 0.0000000000 0.0000000000  Biso 1.0 Mg
Mg2 1.0000000000 0.0000000000 0.5000000000 0.0000000000  Biso 1.0 Mg
Mg3 1.0000000000 0.5000000000 0.0000000000 0.5000000000  Biso 1.0 Mg
Mg4 1.0000000000 0.0000000000 0.5000000000 0.5000000000  Biso 1.0 Mg
O5 1.0000000000 0.6778110463 0.0703288624 0.7500000000  Biso 1.0 O
O6 1.0000000000 0.1778110463 0.4296711376 0.2500000000  Biso 1.0 O
O7 1.0000000000 0.3221889537 0.9296711376 0.2500000000  Biso 1.0 O
O8 1.0000000000 0.8221889537 0.5703288624 0.7500000000  Biso 1.0 O
O9 1.0000000000 0.1398163262 0.1828937326 0.9215150460  Biso 1.0 O
O10 1.0000000000 0.6398163262 0.3171062674 0.0784849540  Biso 1.0 O
O11 1.0000000000 0.8601836738 0.8171062674 0.4215150460  Biso 1.0 O
O12 1.0000000000 0.3601836738 0.6828937326 0.5784849540  Biso 1.0 O
O13 1.0000000000 0.8601836738 0.8171062674 0.0784849540  Biso 1.0 O
O14 1.0000000000 0.3601836738 0.6828937326 0.9215150460  Biso 1.0 O
O15 1.0000000000 0.1398163262 0.1828937326 0.5784849540  Biso 1.0 O
O16 1.0000000000 0.6398163262 0.3171062674 0.4215150460  Biso 1.0 O
Se17 1.0000000000 0.0173376737 0.0215010625 0.7500000000  Biso 1.0 Se
Se18 1.0000000000 0.5173376737 0.4784989375 0.2500000000  Biso 1.0 Se
Se19 1.0000000000 0.9826623263 0.9784989375 0.2500000000  Biso 1.0 Se
Se20 1.0000000000 0.4826623263 0.5215010625 0.7500000000  Biso 1.0 Se
