# AFLOW.org Repositories
# Mg1Ru1Sn4   [BCT,BCT2,tI24] (STD_PRIM do
data_Mg1Ru1Sn4
_pd_phase_name Mg1Ru1Sn4
_cell_length_a  7.5463009588
_cell_length_b  7.5463009588
_cell_length_c  7.5463009588
_cell_angle_alpha  125.5282347486
_cell_angle_beta  125.5282347486
_cell_angle_gamma  80.6649118298
_symmetry_space_group_name_H-M  'P1'
_symmetry_Int_Tables_Number  1
loop_
_symmetry_equiv_pos_site_id
_symmetry_equiv_pos_as_xyz
  1  x,y,z
loop_
 _atom_site_label
 _atom_site_occupancy
 _atom_site_fract_x
 _atom_site_fract_y
 _atom_site_fract_z
 _atom_site_thermal_displace_type
 _atom_site_B_iso_or_equiv
 _atom_site_type_symbol
Mg1 1.0000000000 0.0000000000 0.0000000000 0.0000000000  Biso 1.0 Mg
Mg2 1.0000000000 0.5000000000 0.5000000000 0.0000000000  Biso 1.0 Mg
Ru3 1.0000000000 0.7500000000 0.7500000000 0.0000000000  Biso 1.0 Ru
Ru4 1.0000000000 0.2500000000 0.2500000000 0.0000000000  Biso 1.0 Ru
Sn5 1.0000000000 0.2955683088 0.7955683088 0.8119118137  Biso 1.0 Sn
Sn6 1.0000000000 0.9836564951 0.4836564951 0.1880881863  Biso 1.0 Sn
Sn7 1.0000000000 0.4836564951 0.2955683088 0.5000000000  Biso 1.0 Sn
Sn8 1.0000000000 0.7955683088 0.9836564951 0.5000000000  Biso 1.0 Sn
Sn9 1.0000000000 0.5163435049 0.7044316912 0.5000000000  Biso 1.0 Sn
Sn10 1.0000000000 0.2044316912 0.0163435049 0.5000000000  Biso 1.0 Sn
Sn11 1.0000000000 0.7044316912 0.2044316912 0.1880881863  Biso 1.0 Sn
Sn12 1.0000000000 0.0163435049 0.5163435049 0.8119118137  Biso 1.0 Sn
