# AFLOW.org Repositories
# Mg1Tl1Y1   [HEX,HEX,hP9] (STD_PRIM doi:1
data_Mg1Tl1Y1
_pd_phase_name Mg1Tl1Y1
_cell_length_a  7.5751553736
_cell_length_b  7.5751553736
_cell_length_c  4.6691965109
_cell_angle_alpha  90.0000000000
_cell_angle_beta  90.0000000000
_cell_angle_gamma  120.0000000000
_symmetry_space_group_name_H-M  'P1'
_symmetry_Int_Tables_Number  1
loop_
_symmetry_equiv_pos_site_id
_symmetry_equiv_pos_as_xyz
  1  x,y,z
loop_
 _atom_site_label
 _atom_site_occupancy
 _atom_site_fract_x
 _atom_site_fract_y
 _atom_site_fract_z
 _atom_site_thermal_displace_type
 _atom_site_B_iso_or_equiv
 _atom_site_type_symbol
Mg1 1.0000000000 0.0000000000 0.7565179043 0.5000000000  Biso 1.0 Mg
Mg2 1.0000000000 0.2434820957 0.2434820957 0.5000000000  Biso 1.0 Mg
Mg3 1.0000000000 0.7565069626 0.0000000000 0.5000000000  Biso 1.0 Mg
Tl4 1.0000000000 0.0000000000 0.0000000000 0.0000000000  Biso 1.0 Tl
Tl5 1.0000000000 0.6666741110 0.3333458754 0.5000000000  Biso 1.0 Tl
Tl6 1.0000000000 0.3333282357 0.6666541246 0.5000000000  Biso 1.0 Tl
Y7 1.0000000000 0.0000000000 0.4292410660 0.0000000000  Biso 1.0 Y
Y8 1.0000000000 0.5707589340 0.5707589340 0.0000000000  Biso 1.0 Y
Y9 1.0000000000 0.4292449852 0.0000000000 0.0000000000  Biso 1.0 Y
