# AFLOW.org Repositories
# Mg1Te1   [HEX,HEX,hP4] (STD_PRIM doi:10.
data_Mg1Te1
_pd_phase_name Mg1Te1
_cell_length_a  4.6064874464
_cell_length_b  4.6064874464
_cell_length_c  7.4793081522
_cell_angle_alpha  90.0000000000
_cell_angle_beta  90.0000000000
_cell_angle_gamma  120.0000000000
_symmetry_space_group_name_H-M  'P1'
_symmetry_Int_Tables_Number  1
loop_
_symmetry_equiv_pos_site_id
_symmetry_equiv_pos_as_xyz
  1  x,y,z
loop_
 _atom_site_label
 _atom_site_occupancy
 _atom_site_fract_x
 _atom_site_fract_y
 _atom_site_fract_z
 _atom_site_thermal_displace_type
 _atom_site_B_iso_or_equiv
 _atom_site_type_symbol
Mg1 1.0000000000 0.6666660200 0.3333320399 0.0000000000  Biso 1.0 Mg
Mg2 1.0000000000 0.3333339800 0.6666679601 0.5005611162  Biso 1.0 Mg
Te3 1.0000000000 0.6666631594 0.3333263187 0.3774388838  Biso 1.0 Te
Te4 1.0000000000 0.3333368406 0.6666736813 0.8774388838  Biso 1.0 Te
