# AFLOW.org Repositories
# Mg1Y1   [CUB,CUB,cP2] (STD_PRIM doi:10.1
data_Mg1Y1
_pd_phase_name Mg1Y1
_cell_length_a  3.8016064924
_cell_length_b  3.8016064924
_cell_length_c  3.8016064924
_cell_angle_alpha  90.0000000000
_cell_angle_beta  90.0000000000
_cell_angle_gamma  90.0000000000
_symmetry_space_group_name_H-M  'P1'
_symmetry_Int_Tables_Number  1
loop_
_symmetry_equiv_pos_site_id
_symmetry_equiv_pos_as_xyz
  1  x,y,z
loop_
 _atom_site_label
 _atom_site_occupancy
 _atom_site_fract_x
 _atom_site_fract_y
 _atom_site_fract_z
 _atom_site_thermal_displace_type
 _atom_site_B_iso_or_equiv
 _atom_site_type_symbol
Mg1 1.0000000000 0.0000000000 0.0000000000 0.0000000000  Biso 1.0 Mg
Y2 1.0000000000 0.5000000000 0.5000000000 0.5000000000  Biso 1.0 Y
