# AFLOW.org Repositories
# Mg2Rh1   [BCT,BCT2,tI6] (STD_PRIM doi:10
data_Mg2Rh1
_pd_phase_name Mg2Rh1
_cell_length_a  5.5096005201
_cell_length_b  5.5096005201
_cell_length_c  5.5096005201
_cell_angle_alpha  146.4019959367
_cell_angle_beta  146.4019959367
_cell_angle_gamma  48.2500483877
_symmetry_space_group_name_H-M  'P1'
_symmetry_Int_Tables_Number  1
loop_
_symmetry_equiv_pos_site_id
_symmetry_equiv_pos_as_xyz
  1  x,y,z
loop_
 _atom_site_label
 _atom_site_occupancy
 _atom_site_fract_x
 _atom_site_fract_y
 _atom_site_fract_z
 _atom_site_thermal_displace_type
 _atom_site_B_iso_or_equiv
 _atom_site_type_symbol
Mg1 1.0000000000 0.6435044127 0.6435044127 0.0000000000  Biso 1.0 Mg
Mg2 1.0000000000 0.3564955873 0.3564955873 0.0000000000  Biso 1.0 Mg
Rh3 1.0000000000 0.0000000000 0.0000000000 0.0000000000  Biso 1.0 Rh
