# AFLOW.org Repositories
# Mg3N2   [BCC,BCC,cI80] (STD_PRIM doi:10.
data_Mg3N2
_pd_phase_name Mg3N2
_cell_length_a  8.6813939704
_cell_length_b  8.6813939704
_cell_length_c  8.6813939704
_cell_angle_alpha  109.4712206345
_cell_angle_beta  109.4712206345
_cell_angle_gamma  109.4712206345
_symmetry_space_group_name_H-M  'P1'
_symmetry_Int_Tables_Number  1
loop_
_symmetry_equiv_pos_site_id
_symmetry_equiv_pos_as_xyz
  1  x,y,z
loop_
 _atom_site_label
 _atom_site_occupancy
 _atom_site_fract_x
 _atom_site_fract_y
 _atom_site_fract_z
 _atom_site_thermal_displace_type
 _atom_site_B_iso_or_equiv
 _atom_site_type_symbol
Mg1 1.0000000000 0.4582040118 0.2296686403 0.9927291191  Biso 1.0 Mg
Mg2 1.0000000000 0.0417959882 0.0345251073 0.7714646286  Biso 1.0 Mg
Mg3 1.0000000000 0.7369395213 0.4654748927 0.5072708809  Biso 1.0 Mg
Mg4 1.0000000000 0.7630604787 0.2703313597 0.7285353714  Biso 1.0 Mg
Mg5 1.0000000000 0.2285353714 0.7630604787 0.7703313597  Biso 1.0 Mg
Mg6 1.0000000000 0.0072708809 0.7369395213 0.9654748927  Biso 1.0 Mg
Mg7 1.0000000000 0.2714646286 0.0417959882 0.5345251073  Biso 1.0 Mg
Mg8 1.0000000000 0.4927291191 0.4582040118 0.7296686403  Biso 1.0 Mg
Mg9 1.0000000000 0.4654748927 0.0072708809 0.2369395213  Biso 1.0 Mg
Mg10 1.0000000000 0.2703313597 0.2285353714 0.2630604787  Biso 1.0 Mg
Mg11 1.0000000000 0.2296686403 0.4927291191 0.9582040118  Biso 1.0 Mg
Mg12 1.0000000000 0.0345251073 0.2714646286 0.5417959882  Biso 1.0 Mg
Mg13 1.0000000000 0.5417959882 0.7703313597 0.0072708809  Biso 1.0 Mg
Mg14 1.0000000000 0.9582040118 0.9654748927 0.2285353714  Biso 1.0 Mg
Mg15 1.0000000000 0.2630604787 0.5345251073 0.4927291191  Biso 1.0 Mg
Mg16 1.0000000000 0.2369395213 0.7296686403 0.2714646286  Biso 1.0 Mg
Mg17 1.0000000000 0.7714646286 0.2369395213 0.2296686403  Biso 1.0 Mg
Mg18 1.0000000000 0.9927291191 0.2630604787 0.0345251073  Biso 1.0 Mg
Mg19 1.0000000000 0.7285353714 0.9582040118 0.4654748927  Biso 1.0 Mg
Mg20 1.0000000000 0.5072708809 0.5417959882 0.2703313597  Biso 1.0 Mg
Mg21 1.0000000000 0.5345251073 0.9927291191 0.7630604787  Biso 1.0 Mg
Mg22 1.0000000000 0.7296686403 0.7714646286 0.7369395213  Biso 1.0 Mg
Mg23 1.0000000000 0.7703313597 0.5072708809 0.0417959882  Biso 1.0 Mg
Mg24 1.0000000000 0.9654748927 0.7285353714 0.4582040118  Biso 1.0 Mg
N25 1.0000000000 0.5000000000 0.0000000000 0.0000000000  Biso 1.0 N
N26 1.0000000000 0.0000000000 0.0000000000 0.5000000000  Biso 1.0 N
N27 1.0000000000 0.5000000000 0.5000000000 0.5000000000  Biso 1.0 N
N28 1.0000000000 0.0000000000 0.5000000000 0.0000000000  Biso 1.0 N
N29 1.0000000000 0.0309141730 0.2500000000 0.2809141730  Biso 1.0 N
N30 1.0000000000 0.4690858270 0.7500000000 0.2190858270  Biso 1.0 N
N31 1.0000000000 0.7809141730 0.0309141730 0.7500000000  Biso 1.0 N
N32 1.0000000000 0.7190858270 0.4690858270 0.2500000000  Biso 1.0 N
N33 1.0000000000 0.7500000000 0.7190858270 0.9690858270  Biso 1.0 N
N34 1.0000000000 0.2500000000 0.7809141730 0.5309141730  Biso 1.0 N
N35 1.0000000000 0.9690858270 0.7500000000 0.7190858270  Biso 1.0 N
N36 1.0000000000 0.5309141730 0.2500000000 0.7809141730  Biso 1.0 N
N37 1.0000000000 0.2190858270 0.9690858270 0.2500000000  Biso 1.0 N
N38 1.0000000000 0.2809141730 0.5309141730 0.7500000000  Biso 1.0 N
N39 1.0000000000 0.2500000000 0.2809141730 0.0309141730  Biso 1.0 N
N40 1.0000000000 0.7500000000 0.2190858270 0.4690858270  Biso 1.0 N
