# AFLOW.org Repositories
# Mg3Ru2   [CUB,CUB,cP20] (STD_PRIM doi:10
data_Mg3Ru2
_pd_phase_name Mg3Ru2
_cell_length_a  6.9393754068
_cell_length_b  6.9393754068
_cell_length_c  6.9393754068
_cell_angle_alpha  90.0000000000
_cell_angle_beta  90.0000000000
_cell_angle_gamma  90.0000000000
_symmetry_space_group_name_H-M  'P1'
_symmetry_Int_Tables_Number  1
loop_
_symmetry_equiv_pos_site_id
_symmetry_equiv_pos_as_xyz
  1  x,y,z
loop_
 _atom_site_label
 _atom_site_occupancy
 _atom_site_fract_x
 _atom_site_fract_y
 _atom_site_fract_z
 _atom_site_thermal_displace_type
 _atom_site_B_iso_or_equiv
 _atom_site_type_symbol
Mg1 1.0000000000 0.8750000000 0.7948097946 0.4551902054  Biso 1.0 Mg
Mg2 1.0000000000 0.6250000000 0.2051902054 0.9551902054  Biso 1.0 Mg
Mg3 1.0000000000 0.1250000000 0.2948097946 0.0448097946  Biso 1.0 Mg
Mg4 1.0000000000 0.3750000000 0.7051902054 0.5448097946  Biso 1.0 Mg
Mg5 1.0000000000 0.5448097946 0.8750000000 0.2051902054  Biso 1.0 Mg
Mg6 1.0000000000 0.0448097946 0.6250000000 0.7948097946  Biso 1.0 Mg
Mg7 1.0000000000 0.9551902054 0.1250000000 0.7051902054  Biso 1.0 Mg
Mg8 1.0000000000 0.4551902054 0.3750000000 0.2948097946  Biso 1.0 Mg
Mg9 1.0000000000 0.7948097946 0.5448097946 0.1250000000  Biso 1.0 Mg
Mg10 1.0000000000 0.2051902054 0.0448097946 0.3750000000  Biso 1.0 Mg
Mg11 1.0000000000 0.2948097946 0.9551902054 0.8750000000  Biso 1.0 Mg
Mg12 1.0000000000 0.7051902054 0.4551902054 0.6250000000  Biso 1.0 Mg
Ru13 1.0000000000 0.9258017256 0.9258017256 0.0741982744  Biso 1.0 Ru
Ru14 1.0000000000 0.5741982744 0.0741982744 0.5741982744  Biso 1.0 Ru
Ru15 1.0000000000 0.0741982744 0.4258017256 0.4258017256  Biso 1.0 Ru
Ru16 1.0000000000 0.4258017256 0.5741982744 0.9258017256  Biso 1.0 Ru
Ru17 1.0000000000 0.1758017256 0.6758017256 0.1758017256  Biso 1.0 Ru
Ru18 1.0000000000 0.3241982744 0.3241982744 0.6758017256  Biso 1.0 Ru
Ru19 1.0000000000 0.6758017256 0.8241982744 0.8241982744  Biso 1.0 Ru
Ru20 1.0000000000 0.8241982744 0.1758017256 0.3241982744  Biso 1.0 Ru
