# AFLOW.org Repositories
# Mn1Nb1P1   [ORC,ORC,oP12] (STD_PRIM doi:
data_Mn1Nb1P1
_pd_phase_name Mn1Nb1P1
_cell_length_a  3.6863603902
_cell_length_b  6.1403968848
_cell_length_c  6.9480091942
_cell_angle_alpha  90.0000000000
_cell_angle_beta  90.0000000000
_cell_angle_gamma  90.0000000000
_symmetry_space_group_name_H-M  'P1'
_symmetry_Int_Tables_Number  1
loop_
_symmetry_equiv_pos_site_id
_symmetry_equiv_pos_as_xyz
  1  x,y,z
loop_
 _atom_site_label
 _atom_site_occupancy
 _atom_site_fract_x
 _atom_site_fract_y
 _atom_site_fract_z
 _atom_site_thermal_displace_type
 _atom_site_B_iso_or_equiv
 _atom_site_type_symbol
Mn1 1.0000000000 0.2500000000 0.1497864020 0.4370131814  Biso 1.0 Mn
Mn2 1.0000000000 0.7500000000 0.3502135980 0.9370131814  Biso 1.0 Mn
Mn3 1.0000000000 0.7500000000 0.8502135980 0.5629868186  Biso 1.0 Mn
Mn4 1.0000000000 0.2500000000 0.6497864020 0.0629868186  Biso 1.0 Mn
Nb5 1.0000000000 0.2500000000 0.0129353408 0.8174303399  Biso 1.0 Nb
Nb6 1.0000000000 0.7500000000 0.4870646592 0.3174303399  Biso 1.0 Nb
Nb7 1.0000000000 0.7500000000 0.9870646592 0.1825696601  Biso 1.0 Nb
Nb8 1.0000000000 0.2500000000 0.5129353408 0.6825696601  Biso 1.0 Nb
P9 1.0000000000 0.2500000000 0.7839474023 0.3830008872  Biso 1.0 P
P10 1.0000000000 0.7500000000 0.7160525977 0.8830008872  Biso 1.0 P
P11 1.0000000000 0.7500000000 0.2160525977 0.6169991128  Biso 1.0 P
P12 1.0000000000 0.2500000000 0.2839474023 0.1169991128  Biso 1.0 P
