# AFLOW.org Repositories
# Mn1N3Sr3   [HEX,HEX,hP14] (STD_PRIM doi:
data_Mn1N3Sr3
_pd_phase_name Mn1N3Sr3
_cell_length_a  7.6631807635
_cell_length_b  7.6631807635
_cell_length_c  5.3747774024
_cell_angle_alpha  90.0000000000
_cell_angle_beta  90.0000000000
_cell_angle_gamma  120.0000000000
_symmetry_space_group_name_H-M  'P1'
_symmetry_Int_Tables_Number  1
loop_
_symmetry_equiv_pos_site_id
_symmetry_equiv_pos_as_xyz
  1  x,y,z
loop_
 _atom_site_label
 _atom_site_occupancy
 _atom_site_fract_x
 _atom_site_fract_y
 _atom_site_fract_z
 _atom_site_thermal_displace_type
 _atom_site_B_iso_or_equiv
 _atom_site_type_symbol
Mn1 1.0000000000 0.3333789380 0.6666912236 0.2500000000  Biso 1.0 Mn
Mn2 1.0000000000 0.6666210620 0.3333087764 0.7500000000  Biso 1.0 Mn
N3 1.0000000000 0.2968636447 0.8821325996 0.2500000000  Biso 1.0 N
N4 1.0000000000 0.1178731224 0.4147103705 0.2500000000  Biso 1.0 N
N5 1.0000000000 0.5853175577 0.7031760884 0.2500000000  Biso 1.0 N
N6 1.0000000000 0.7031363553 0.1178674004 0.7500000000  Biso 1.0 N
N7 1.0000000000 0.8821268776 0.5852896295 0.7500000000  Biso 1.0 N
N8 1.0000000000 0.4146824423 0.2968239116 0.7500000000  Biso 1.0 N
Sr9 1.0000000000 0.9103133385 0.6330766712 0.2500000000  Biso 1.0 Sr
Sr10 1.0000000000 0.3668805723 0.2771812821 0.2500000000  Biso 1.0 Sr
Sr11 1.0000000000 0.7228305687 0.0897594388 0.2500000000  Biso 1.0 Sr
Sr12 1.0000000000 0.0896866615 0.3669233288 0.7500000000  Biso 1.0 Sr
Sr13 1.0000000000 0.6331194277 0.7228187179 0.7500000000  Biso 1.0 Sr
Sr14 1.0000000000 0.2771694313 0.9102405612 0.7500000000  Biso 1.0 Sr
