# AFLOW.org Repositories
# Mn1Pt3   [CUB,CUB,cP4] (STD_PRIM doi:10.
data_Mn1Pt3
_pd_phase_name Mn1Pt3
_cell_length_a  3.9521268488
_cell_length_b  3.9521268488
_cell_length_c  3.9521268488
_cell_angle_alpha  90.0000000000
_cell_angle_beta  90.0000000000
_cell_angle_gamma  90.0000000000
_symmetry_space_group_name_H-M  'P1'
_symmetry_Int_Tables_Number  1
loop_
_symmetry_equiv_pos_site_id
_symmetry_equiv_pos_as_xyz
  1  x,y,z
loop_
 _atom_site_label
 _atom_site_occupancy
 _atom_site_fract_x
 _atom_site_fract_y
 _atom_site_fract_z
 _atom_site_thermal_displace_type
 _atom_site_B_iso_or_equiv
 _atom_site_type_symbol
Mn1 1.0000000000 0.0000000000 0.0000000000 0.0000000000  Biso 1.0 Mn
Pt2 1.0000000000 0.0000000000 0.5000000000 0.5000000000  Biso 1.0 Pt
Pt3 1.0000000000 0.5000000000 0.0000000000 0.5000000000  Biso 1.0 Pt
Pt4 1.0000000000 0.5000000000 0.5000000000 0.0000000000  Biso 1.0 Pt
