# AFLOW.org Repositories
# Mo3N1Pt2   [CUB,CUB,cP24] (STD_PRIM doi:
data_Mo3N1Pt2
_pd_phase_name Mo3N1Pt2
_cell_length_a  6.9031008192
_cell_length_b  6.9031008192
_cell_length_c  6.9031008192
_cell_angle_alpha  90.0000000000
_cell_angle_beta  90.0000000000
_cell_angle_gamma  90.0000000000
_symmetry_space_group_name_H-M  'P1'
_symmetry_Int_Tables_Number  1
loop_
_symmetry_equiv_pos_site_id
_symmetry_equiv_pos_as_xyz
  1  x,y,z
loop_
 _atom_site_label
 _atom_site_occupancy
 _atom_site_fract_x
 _atom_site_fract_y
 _atom_site_fract_z
 _atom_site_thermal_displace_type
 _atom_site_B_iso_or_equiv
 _atom_site_type_symbol
Mo1 1.0000000000 0.1998192059 0.9498192059 0.1250000000  Biso 1.0 Mo
Mo2 1.0000000000 0.3001807941 0.0501807941 0.6250000000  Biso 1.0 Mo
Mo3 1.0000000000 0.8001807941 0.4498192059 0.3750000000  Biso 1.0 Mo
Mo4 1.0000000000 0.6998192059 0.5501807941 0.8750000000  Biso 1.0 Mo
Mo5 1.0000000000 0.8750000000 0.1998192059 0.0501807941  Biso 1.0 Mo
Mo6 1.0000000000 0.3750000000 0.3001807941 0.9498192059  Biso 1.0 Mo
Mo7 1.0000000000 0.6250000000 0.8001807941 0.5501807941  Biso 1.0 Mo
Mo8 1.0000000000 0.1250000000 0.6998192059 0.4498192059  Biso 1.0 Mo
Mo9 1.0000000000 0.9498192059 0.8750000000 0.8001807941  Biso 1.0 Mo
Mo10 1.0000000000 0.0501807941 0.3750000000 0.6998192059  Biso 1.0 Mo
Mo11 1.0000000000 0.4498192059 0.6250000000 0.1998192059  Biso 1.0 Mo
Mo12 1.0000000000 0.5501807941 0.1250000000 0.3001807941  Biso 1.0 Mo
N13 1.0000000000 0.1250000000 0.1250000000 0.8750000000  Biso 1.0 N
N14 1.0000000000 0.3750000000 0.8750000000 0.3750000000  Biso 1.0 N
N15 1.0000000000 0.8750000000 0.6250000000 0.6250000000  Biso 1.0 N
N16 1.0000000000 0.6250000000 0.3750000000 0.1250000000  Biso 1.0 N
Pt17 1.0000000000 0.8072319424 0.8072319424 0.1927680576  Biso 1.0 Pt
Pt18 1.0000000000 0.6927680576 0.1927680576 0.6927680576  Biso 1.0 Pt
Pt19 1.0000000000 0.1927680576 0.3072319424 0.3072319424  Biso 1.0 Pt
Pt20 1.0000000000 0.3072319424 0.6927680576 0.8072319424  Biso 1.0 Pt
Pt21 1.0000000000 0.0572319424 0.5572319424 0.0572319424  Biso 1.0 Pt
Pt22 1.0000000000 0.4427680576 0.4427680576 0.5572319424  Biso 1.0 Pt
Pt23 1.0000000000 0.5572319424 0.9427680576 0.9427680576  Biso 1.0 Pt
Pt24 1.0000000000 0.9427680576 0.0572319424 0.4427680576  Biso 1.0 Pt
