# AFLOW.org Repositories
# N1Os1   [ORCC,ORCC,oS16] (STD_PRIM doi:1
data_N1Os1
_pd_phase_name N1Os1
_cell_length_a  6.4752303182
_cell_length_b  6.4752303182
_cell_length_c  4.8363192743
_cell_angle_alpha  90.0000000000
_cell_angle_beta  90.0000000000
_cell_angle_gamma  155.3124604326
_symmetry_space_group_name_H-M  'P1'
_symmetry_Int_Tables_Number  1
loop_
_symmetry_equiv_pos_site_id
_symmetry_equiv_pos_as_xyz
  1  x,y,z
loop_
 _atom_site_label
 _atom_site_occupancy
 _atom_site_fract_x
 _atom_site_fract_y
 _atom_site_fract_z
 _atom_site_thermal_displace_type
 _atom_site_B_iso_or_equiv
 _atom_site_type_symbol
N1 1.0000000000 0.1382552138 0.8617447862 0.9951873076  Biso 1.0 N
N2 1.0000000000 0.8617447862 0.1382552138 0.4951873076  Biso 1.0 N
N3 1.0000000000 0.2294978109 0.7705021891 0.8270708266  Biso 1.0 N
N4 1.0000000000 0.7705021891 0.2294978109 0.3270708266  Biso 1.0 N
Os5 1.0000000000 0.5371354359 0.4628645641 0.8247296637  Biso 1.0 Os
Os6 1.0000000000 0.4628645641 0.5371354359 0.3247296637  Biso 1.0 Os
Os7 1.0000000000 0.8454071318 0.1545928682 0.9230122021  Biso 1.0 Os
Os8 1.0000000000 0.1545928682 0.8454071318 0.4230122021  Biso 1.0 Os
