# AFLOW.org Repositories
# N1Re2   [HEX,HEX,hP6] (STD_PRIM doi:10.1
data_N1Re2
_pd_phase_name N1Re2
_cell_length_a  2.8701562329
_cell_length_b  2.8701562329
_cell_length_c  9.8948103854
_cell_angle_alpha  90.0000000000
_cell_angle_beta  90.0000000000
_cell_angle_gamma  120.0000000000
_symmetry_space_group_name_H-M  'P1'
_symmetry_Int_Tables_Number  1
loop_
_symmetry_equiv_pos_site_id
_symmetry_equiv_pos_as_xyz
  1  x,y,z
loop_
 _atom_site_label
 _atom_site_occupancy
 _atom_site_fract_x
 _atom_site_fract_y
 _atom_site_fract_z
 _atom_site_thermal_displace_type
 _atom_site_B_iso_or_equiv
 _atom_site_type_symbol
N1 1.0000000000 0.3333630935 0.6666815467 0.7500000000  Biso 1.0 N
N2 1.0000000000 0.6666369065 0.3333184533 0.2500000000  Biso 1.0 N
Re3 1.0000000000 0.3333573508 0.6666786754 0.1058594568  Biso 1.0 Re
Re4 1.0000000000 0.6666426492 0.3333213246 0.6058594568  Biso 1.0 Re
Re5 1.0000000000 0.6666426492 0.3333213246 0.8941405432  Biso 1.0 Re
Re6 1.0000000000 0.3333573508 0.6666786754 0.3941405432  Biso 1.0 Re
