# AFLOW.org Repositories
# N3Ta1Th1   [ORCC,ORCC,oS20] (STD_PRIM do
data_N3Ta1Th1
_pd_phase_name N3Ta1Th1
_cell_length_a  5.6188672197
_cell_length_b  5.6188672197
_cell_length_c  7.8446096635
_cell_angle_alpha  90.0000000000
_cell_angle_beta  90.0000000000
_cell_angle_gamma  145.7032682479
_symmetry_space_group_name_H-M  'P1'
_symmetry_Int_Tables_Number  1
loop_
_symmetry_equiv_pos_site_id
_symmetry_equiv_pos_as_xyz
  1  x,y,z
loop_
 _atom_site_label
 _atom_site_occupancy
 _atom_site_fract_x
 _atom_site_fract_y
 _atom_site_fract_z
 _atom_site_thermal_displace_type
 _atom_site_B_iso_or_equiv
 _atom_site_type_symbol
N1 1.0000000000 0.0650441513 0.9349558487 0.7500000000  Biso 1.0 N
N2 1.0000000000 0.9349558487 0.0650441513 0.2500000000  Biso 1.0 N
N3 1.0000000000 0.3736619481 0.6263380519 0.9459658507  Biso 1.0 N
N4 1.0000000000 0.6263380519 0.3736619481 0.4459658507  Biso 1.0 N
N5 1.0000000000 0.3736619481 0.6263380519 0.5540341493  Biso 1.0 N
N6 1.0000000000 0.6263380519 0.3736619481 0.0540341493  Biso 1.0 N
Ta7 1.0000000000 0.0000000000 0.0000000000 0.0000000000  Biso 1.0 Ta
Ta8 1.0000000000 0.0000000000 0.0000000000 0.5000000000  Biso 1.0 Ta
Th9 1.0000000000 0.7393313593 0.2606686407 0.7500000000  Biso 1.0 Th
Th10 1.0000000000 0.2606686407 0.7393313593 0.2500000000  Biso 1.0 Th
