# AFLOW.org Repositories
# Na1O3Sb1   [FCC,FCC,cF80] (STD_PRIM doi:
data_Na1O3Sb1
_pd_phase_name Na1O3Sb1
_cell_length_a  7.3402132248
_cell_length_b  7.3402132248
_cell_length_c  7.3402132248
_cell_angle_alpha  60.0000000000
_cell_angle_beta  60.0000000000
_cell_angle_gamma  60.0000000000
_symmetry_space_group_name_H-M  'P1'
_symmetry_Int_Tables_Number  1
loop_
_symmetry_equiv_pos_site_id
_symmetry_equiv_pos_as_xyz
  1  x,y,z
loop_
 _atom_site_label
 _atom_site_occupancy
 _atom_site_fract_x
 _atom_site_fract_y
 _atom_site_fract_z
 _atom_site_thermal_displace_type
 _atom_site_B_iso_or_equiv
 _atom_site_type_symbol
Na1 1.0000000000 0.0000000000 0.0000000000 0.0000000000  Biso 1.0 Na
Na2 1.0000000000 0.0000000000 0.5000000000 0.5000000000  Biso 1.0 Na
Na3 1.0000000000 0.5000000000 0.5000000000 0.0000000000  Biso 1.0 Na
Na4 1.0000000000 0.0000000000 0.5000000000 0.0000000000  Biso 1.0 Na
O5 1.0000000000 0.4221500103 0.3278499897 0.4221500103  Biso 1.0 O
O6 1.0000000000 0.8278499897 0.9221500103 0.8278499897  Biso 1.0 O
O7 1.0000000000 0.8278499897 0.3278499897 0.4221500103  Biso 1.0 O
O8 1.0000000000 0.4221500103 0.9221500103 0.8278499897  Biso 1.0 O
O9 1.0000000000 0.4221500103 0.3278499897 0.8278499897  Biso 1.0 O
O10 1.0000000000 0.8278499897 0.9221500103 0.4221500103  Biso 1.0 O
O11 1.0000000000 0.5778499897 0.0778499897 0.1721500103  Biso 1.0 O
O12 1.0000000000 0.1721500103 0.6721500103 0.5778499897  Biso 1.0 O
O13 1.0000000000 0.1721500103 0.0778499897 0.1721500103  Biso 1.0 O
O14 1.0000000000 0.5778499897 0.6721500103 0.5778499897  Biso 1.0 O
O15 1.0000000000 0.5778499897 0.6721500103 0.1721500103  Biso 1.0 O
O16 1.0000000000 0.1721500103 0.0778499897 0.5778499897  Biso 1.0 O
Sb17 1.0000000000 0.5000000000 0.5000000000 0.5000000000  Biso 1.0 Sb
Sb18 1.0000000000 0.5000000000 0.0000000000 0.0000000000  Biso 1.0 Sb
Sb19 1.0000000000 0.0000000000 0.0000000000 0.5000000000  Biso 1.0 Sb
Sb20 1.0000000000 0.5000000000 0.0000000000 0.5000000000  Biso 1.0 Sb
