# AFLOW.org Repositories
# Na3Sb1Te3   [CUB,CUB,cP28] (STD_PRIM doi
data_Na3Sb1Te3
_pd_phase_name Na3Sb1Te3
_cell_length_a  9.6303870385
_cell_length_b  9.6303870385
_cell_length_c  9.6303870385
_cell_angle_alpha  90.0000000000
_cell_angle_beta  90.0000000000
_cell_angle_gamma  90.0000000000
_symmetry_space_group_name_H-M  'P1'
_symmetry_Int_Tables_Number  1
loop_
_symmetry_equiv_pos_site_id
_symmetry_equiv_pos_as_xyz
  1  x,y,z
loop_
 _atom_site_label
 _atom_site_occupancy
 _atom_site_fract_x
 _atom_site_fract_y
 _atom_site_fract_z
 _atom_site_thermal_displace_type
 _atom_site_B_iso_or_equiv
 _atom_site_type_symbol
Na1 1.0000000000 0.8162470981 0.8162470981 0.1837529019  Biso 1.0 Na
Na2 1.0000000000 0.6837529019 0.1837529019 0.6837529019  Biso 1.0 Na
Na3 1.0000000000 0.1837529019 0.3162470981 0.3162470981  Biso 1.0 Na
Na4 1.0000000000 0.3162470981 0.6837529019 0.8162470981  Biso 1.0 Na
Na5 1.0000000000 0.3275328565 0.3275328565 0.6724671435  Biso 1.0 Na
Na6 1.0000000000 0.1724671435 0.6724671435 0.1724671435  Biso 1.0 Na
Na7 1.0000000000 0.6724671435 0.8275328565 0.8275328565  Biso 1.0 Na
Na8 1.0000000000 0.8275328565 0.1724671435 0.3275328565  Biso 1.0 Na
Na9 1.0000000000 0.5874983606 0.5874983606 0.4125016394  Biso 1.0 Na
Na10 1.0000000000 0.9125016394 0.4125016394 0.9125016394  Biso 1.0 Na
Na11 1.0000000000 0.4125016394 0.0874983606 0.0874983606  Biso 1.0 Na
Na12 1.0000000000 0.0874983606 0.9125016394 0.5874983606  Biso 1.0 Na
Sb13 1.0000000000 0.0396452114 0.0396452114 0.9603547886  Biso 1.0 Sb
Sb14 1.0000000000 0.4603547886 0.9603547886 0.4603547886  Biso 1.0 Sb
Sb15 1.0000000000 0.9603547886 0.5396452114 0.5396452114  Biso 1.0 Sb
Sb16 1.0000000000 0.5396452114 0.4603547886 0.0396452114  Biso 1.0 Sb
Te17 1.0000000000 0.7590846272 0.1202671650 0.0033800487  Biso 1.0 Te
Te18 1.0000000000 0.7409153728 0.8797328350 0.5033800487  Biso 1.0 Te
Te19 1.0000000000 0.2409153728 0.6202671650 0.4966199513  Biso 1.0 Te
Te20 1.0000000000 0.2590846272 0.3797328350 0.9966199513  Biso 1.0 Te
Te21 1.0000000000 0.9966199513 0.7590846272 0.8797328350  Biso 1.0 Te
Te22 1.0000000000 0.4966199513 0.7409153728 0.1202671650  Biso 1.0 Te
Te23 1.0000000000 0.5033800487 0.2409153728 0.3797328350  Biso 1.0 Te
Te24 1.0000000000 0.0033800487 0.2590846272 0.6202671650  Biso 1.0 Te
Te25 1.0000000000 0.1202671650 0.9966199513 0.2409153728  Biso 1.0 Te
Te26 1.0000000000 0.8797328350 0.4966199513 0.2590846272  Biso 1.0 Te
Te27 1.0000000000 0.6202671650 0.5033800487 0.7590846272  Biso 1.0 Te
Te28 1.0000000000 0.3797328350 0.0033800487 0.7409153728  Biso 1.0 Te
