# AFLOW.org Repositories
# Na4Si23   [CUB,CUB,cP54] (STD_PRIM doi:1
data_Na4Si23
_pd_phase_name Na4Si23
_cell_length_a  10.2378840954
_cell_length_b  10.2378840954
_cell_length_c  10.2378840954
_cell_angle_alpha  90.0000000000
_cell_angle_beta  90.0000000000
_cell_angle_gamma  90.0000000000
_symmetry_space_group_name_H-M  'P1'
_symmetry_Int_Tables_Number  1
loop_
_symmetry_equiv_pos_site_id
_symmetry_equiv_pos_as_xyz
  1  x,y,z
loop_
 _atom_site_label
 _atom_site_occupancy
 _atom_site_fract_x
 _atom_site_fract_y
 _atom_site_fract_z
 _atom_site_thermal_displace_type
 _atom_site_B_iso_or_equiv
 _atom_site_type_symbol
Na1 1.0000000000 0.0000000000 0.0000000000 0.0000000000  Biso 1.0 Na
Na2 1.0000000000 0.5000000000 0.5000000000 0.5000000000  Biso 1.0 Na
Na3 1.0000000000 0.7500000000 0.5000000000 0.0000000000  Biso 1.0 Na
Na4 1.0000000000 0.2500000000 0.5000000000 0.0000000000  Biso 1.0 Na
Na5 1.0000000000 0.0000000000 0.7500000000 0.5000000000  Biso 1.0 Na
Na6 1.0000000000 0.0000000000 0.2500000000 0.5000000000  Biso 1.0 Na
Na7 1.0000000000 0.5000000000 0.0000000000 0.2500000000  Biso 1.0 Na
Na8 1.0000000000 0.5000000000 0.0000000000 0.7500000000  Biso 1.0 Na
Si9 1.0000000000 0.7500000000 0.0000000000 0.5000000000  Biso 1.0 Si
Si10 1.0000000000 0.2500000000 0.0000000000 0.5000000000  Biso 1.0 Si
Si11 1.0000000000 0.5000000000 0.7500000000 0.0000000000  Biso 1.0 Si
Si12 1.0000000000 0.5000000000 0.2500000000 0.0000000000  Biso 1.0 Si
Si13 1.0000000000 0.0000000000 0.5000000000 0.2500000000  Biso 1.0 Si
Si14 1.0000000000 0.0000000000 0.5000000000 0.7500000000  Biso 1.0 Si
Si15 1.0000000000 0.8158990559 0.8158990559 0.1841009441  Biso 1.0 Si
Si16 1.0000000000 0.1841009441 0.1841009441 0.1841009441  Biso 1.0 Si
Si17 1.0000000000 0.1841009441 0.8158990559 0.8158990559  Biso 1.0 Si
Si18 1.0000000000 0.8158990559 0.1841009441 0.8158990559  Biso 1.0 Si
Si19 1.0000000000 0.3158990559 0.3158990559 0.3158990559  Biso 1.0 Si
Si20 1.0000000000 0.6841009441 0.6841009441 0.3158990559  Biso 1.0 Si
Si21 1.0000000000 0.3158990559 0.6841009441 0.6841009441  Biso 1.0 Si
Si22 1.0000000000 0.6841009441 0.3158990559 0.6841009441  Biso 1.0 Si
Si23 1.0000000000 0.1841009441 0.1841009441 0.8158990559  Biso 1.0 Si
Si24 1.0000000000 0.8158990559 0.8158990559 0.8158990559  Biso 1.0 Si
Si25 1.0000000000 0.8158990559 0.1841009441 0.1841009441  Biso 1.0 Si
Si26 1.0000000000 0.1841009441 0.8158990559 0.1841009441  Biso 1.0 Si
Si27 1.0000000000 0.6841009441 0.6841009441 0.6841009441  Biso 1.0 Si
Si28 1.0000000000 0.3158990559 0.3158990559 0.6841009441  Biso 1.0 Si
Si29 1.0000000000 0.6841009441 0.3158990559 0.3158990559  Biso 1.0 Si
Si30 1.0000000000 0.3158990559 0.6841009441 0.3158990559  Biso 1.0 Si
Si31 1.0000000000 0.0000000000 0.6922650614 0.1172383992  Biso 1.0 Si
Si32 1.0000000000 0.0000000000 0.3077349386 0.1172383992  Biso 1.0 Si
Si33 1.0000000000 0.0000000000 0.6922650614 0.8827616008  Biso 1.0 Si
Si34 1.0000000000 0.0000000000 0.3077349386 0.8827616008  Biso 1.0 Si
Si35 1.0000000000 0.8827616008 0.0000000000 0.3077349386  Biso 1.0 Si
Si36 1.0000000000 0.8827616008 0.0000000000 0.6922650614  Biso 1.0 Si
Si37 1.0000000000 0.1172383992 0.0000000000 0.3077349386  Biso 1.0 Si
Si38 1.0000000000 0.1172383992 0.0000000000 0.6922650614  Biso 1.0 Si
Si39 1.0000000000 0.6922650614 0.8827616008 0.0000000000  Biso 1.0 Si
Si40 1.0000000000 0.3077349386 0.8827616008 0.0000000000  Biso 1.0 Si
Si41 1.0000000000 0.6922650614 0.1172383992 0.0000000000  Biso 1.0 Si
Si42 1.0000000000 0.3077349386 0.1172383992 0.0000000000  Biso 1.0 Si
Si43 1.0000000000 0.1922650614 0.5000000000 0.3827616008  Biso 1.0 Si
Si44 1.0000000000 0.8077349386 0.5000000000 0.3827616008  Biso 1.0 Si
Si45 1.0000000000 0.1922650614 0.5000000000 0.6172383992  Biso 1.0 Si
Si46 1.0000000000 0.8077349386 0.5000000000 0.6172383992  Biso 1.0 Si
Si47 1.0000000000 0.5000000000 0.3827616008 0.1922650614  Biso 1.0 Si
Si48 1.0000000000 0.5000000000 0.3827616008 0.8077349386  Biso 1.0 Si
Si49 1.0000000000 0.5000000000 0.6172383992 0.1922650614  Biso 1.0 Si
Si50 1.0000000000 0.5000000000 0.6172383992 0.8077349386  Biso 1.0 Si
Si51 1.0000000000 0.3827616008 0.1922650614 0.5000000000  Biso 1.0 Si
Si52 1.0000000000 0.3827616008 0.8077349386 0.5000000000  Biso 1.0 Si
Si53 1.0000000000 0.6172383992 0.1922650614 0.5000000000  Biso 1.0 Si
Si54 1.0000000000 0.6172383992 0.8077349386 0.5000000000  Biso 1.0 Si
