# AFLOW.org Repositories
# Na6O9S2   [FCC,FCC,cF68] (STD_PRIM doi:1
data_Na6O9S2
_pd_phase_name Na6O9S2
_cell_length_a  6.8905638655
_cell_length_b  6.8905638655
_cell_length_c  6.8905638655
_cell_angle_alpha  60.0000000000
_cell_angle_beta  60.0000000000
_cell_angle_gamma  60.0000000000
_symmetry_space_group_name_H-M  'P1'
_symmetry_Int_Tables_Number  1
loop_
_symmetry_equiv_pos_site_id
_symmetry_equiv_pos_as_xyz
  1  x,y,z
loop_
 _atom_site_label
 _atom_site_occupancy
 _atom_site_fract_x
 _atom_site_fract_y
 _atom_site_fract_z
 _atom_site_thermal_displace_type
 _atom_site_B_iso_or_equiv
 _atom_site_type_symbol
Na1 1.0000000000 0.2355167814 0.2355167814 0.7644832186  Biso 1.0 Na
Na2 1.0000000000 0.7644832186 0.7644832186 0.2355167814  Biso 1.0 Na
Na3 1.0000000000 0.2355167814 0.7644832186 0.2355167814  Biso 1.0 Na
Na4 1.0000000000 0.7644832186 0.2355167814 0.7644832186  Biso 1.0 Na
Na5 1.0000000000 0.7644832186 0.2355167814 0.2355167814  Biso 1.0 Na
Na6 1.0000000000 0.2355167814 0.7644832186 0.7644832186  Biso 1.0 Na
O7 1.0000000000 0.6614563260 0.6614563260 0.0156310220  Biso 1.0 O
O8 1.0000000000 0.6614563260 0.6614563260 0.6614563260  Biso 1.0 O
O9 1.0000000000 0.6614563260 0.0156310220 0.6614563260  Biso 1.0 O
O10 1.0000000000 0.0156310220 0.6614563260 0.6614563260  Biso 1.0 O
O11 1.0000000000 0.3385436740 0.3385436740 0.3385436740  Biso 1.0 O
O12 1.0000000000 0.3385436740 0.3385436740 0.9843689780  Biso 1.0 O
O13 1.0000000000 0.3385436740 0.9843689780 0.3385436740  Biso 1.0 O
O14 1.0000000000 0.9843689780 0.3385436740 0.3385436740  Biso 1.0 O
O15 1.0000000000 0.0000000000 0.0000000000 0.0000000000  Biso 1.0 O
S16 1.0000000000 0.7500000000 0.7500000000 0.7500000000  Biso 1.0 S
S17 1.0000000000 0.2500000000 0.2500000000 0.2500000000  Biso 1.0 S
