# AFLOW.org Repositories
# Na6O5Pb1   [BCT,BCT1,tI24] (STD_PRIM doi
data_Na6O5Pb1
_pd_phase_name Na6O5Pb1
_cell_length_a  6.1912643328
_cell_length_b  6.1912643328
_cell_length_c  6.1912643328
_cell_angle_alpha  101.8322189960
_cell_angle_beta  101.8322189960
_cell_angle_gamma  126.1504140837
_symmetry_space_group_name_H-M  'P1'
_symmetry_Int_Tables_Number  1
loop_
_symmetry_equiv_pos_site_id
_symmetry_equiv_pos_as_xyz
  1  x,y,z
loop_
 _atom_site_label
 _atom_site_occupancy
 _atom_site_fract_x
 _atom_site_fract_y
 _atom_site_fract_z
 _atom_site_thermal_displace_type
 _atom_site_B_iso_or_equiv
 _atom_site_type_symbol
Na1 1.0000000000 0.3001852061 0.8001852061 0.5000000000  Biso 1.0 Na
Na2 1.0000000000 0.8001852061 0.3001852061 0.5000000000  Biso 1.0 Na
Na3 1.0000000000 0.2113025501 0.6066697131 0.0000000000  Biso 1.0 Na
Na4 1.0000000000 0.6066697131 0.2113025501 0.0000000000  Biso 1.0 Na
Na5 1.0000000000 0.2113025501 0.2113025501 0.6046328369  Biso 1.0 Na
Na6 1.0000000000 0.6066697131 0.6066697131 0.3953671631  Biso 1.0 Na
O7 1.0000000000 0.5800366320 0.5800366320 0.0000000000  Biso 1.0 O
O8 1.0000000000 0.0630668034 0.7902262372 0.7271594337  Biso 1.0 O
O9 1.0000000000 0.0630668034 0.3359073697 0.2728405663  Biso 1.0 O
O10 1.0000000000 0.3359073697 0.0630668034 0.2728405663  Biso 1.0 O
O11 1.0000000000 0.7902262372 0.0630668034 0.7271594337  Biso 1.0 O
Pb12 1.0000000000 0.9613812156 0.9613812156 0.0000000000  Biso 1.0 Pb
