# AFLOW.org Repositories
# Nb1Pd1Si1   [ORC,ORC,oP12] (STD_PRIM doi
data_Nb1Pd1Si1
_pd_phase_name Nb1Pd1Si1
_cell_length_a  3.7713833072
_cell_length_b  6.5037734244
_cell_length_c  7.5001992961
_cell_angle_alpha  90.0000000000
_cell_angle_beta  90.0000000000
_cell_angle_gamma  90.0000000000
_symmetry_space_group_name_H-M  'P1'
_symmetry_Int_Tables_Number  1
loop_
_symmetry_equiv_pos_site_id
_symmetry_equiv_pos_as_xyz
  1  x,y,z
loop_
 _atom_site_label
 _atom_site_occupancy
 _atom_site_fract_x
 _atom_site_fract_y
 _atom_site_fract_z
 _atom_site_thermal_displace_type
 _atom_site_B_iso_or_equiv
 _atom_site_type_symbol
Nb1 1.0000000000 0.2500000000 0.9730610931 0.3356764511  Biso 1.0 Nb
Nb2 1.0000000000 0.7500000000 0.5269389069 0.8356764511  Biso 1.0 Nb
Nb3 1.0000000000 0.7500000000 0.0269389069 0.6643235489  Biso 1.0 Nb
Nb4 1.0000000000 0.2500000000 0.4730610931 0.1643235489  Biso 1.0 Nb
Pd5 1.0000000000 0.2500000000 0.3509742448 0.5633355364  Biso 1.0 Pd
Pd6 1.0000000000 0.7500000000 0.1490257552 0.0633355364  Biso 1.0 Pd
Pd7 1.0000000000 0.7500000000 0.6490257552 0.4366644636  Biso 1.0 Pd
Pd8 1.0000000000 0.2500000000 0.8509742448 0.9366644636  Biso 1.0 Pd
Si9 1.0000000000 0.2500000000 0.7303173422 0.6299052572  Biso 1.0 Si
Si10 1.0000000000 0.7500000000 0.7696826578 0.1299052572  Biso 1.0 Si
Si11 1.0000000000 0.7500000000 0.2696826578 0.3700947428  Biso 1.0 Si
Si12 1.0000000000 0.2500000000 0.2303173422 0.8700947428  Biso 1.0 Si
