# AFLOW.org Repositories
# Nb1S2Sn0.333   [HEX,HEX,hP20] (STD_PRIM 
data_Nb1S2Sn0.333
_pd_phase_name Nb1S2Sn0.333
_cell_length_a  5.8478104355
_cell_length_b  5.8478104355
_cell_length_c  14.7563621243
_cell_angle_alpha  90.0000000000
_cell_angle_beta  90.0000000000
_cell_angle_gamma  120.0000000000
_symmetry_space_group_name_H-M  'P1'
_symmetry_Int_Tables_Number  1
loop_
_symmetry_equiv_pos_site_id
_symmetry_equiv_pos_as_xyz
  1  x,y,z
loop_
 _atom_site_label
 _atom_site_occupancy
 _atom_site_fract_x
 _atom_site_fract_y
 _atom_site_fract_z
 _atom_site_thermal_displace_type
 _atom_site_B_iso_or_equiv
 _atom_site_type_symbol
Nb1 1.0000000000 0.3333294129 0.6666662353 0.0000000000  Biso 1.0 Nb
Nb2 1.0000000000 0.6666711801 0.3333346669 0.4999987827  Biso 1.0 Nb
Nb3 1.0000000000 0.6666705871 0.3333368224 0.0000000000  Biso 1.0 Nb
Nb4 1.0000000000 0.3333288199 0.6666634868 0.5000012173  Biso 1.0 Nb
Nb5 1.0000000000 0.0000000000 0.0000000000 0.0000000000  Biso 1.0 Nb
Nb6 1.0000000000 0.0000000000 0.0000000000 0.5000000000  Biso 1.0 Nb
S7 1.0000000000 0.0000000000 0.6645853780 0.1060239033  Biso 1.0 S
S8 1.0000000000 0.3354005569 0.3354005569 0.1060234665  Biso 1.0 S
S9 1.0000000000 0.6645982470 0.0000000000 0.1060234054  Biso 1.0 S
S10 1.0000000000 0.0000000000 0.3354110302 0.6060148404  Biso 1.0 S
S11 1.0000000000 0.6645971804 0.6645971804 0.6060142539  Biso 1.0 S
S12 1.0000000000 0.3354038074 0.0000000000 0.6060141740  Biso 1.0 S
S13 1.0000000000 0.0000000000 0.6646001253 0.8939760967  Biso 1.0 S
S14 1.0000000000 0.6645831434 0.0000000000 0.8939765335  Biso 1.0 S
S15 1.0000000000 0.3354161411 0.3354161411 0.8939765946  Biso 1.0 S
S16 1.0000000000 0.0000000000 0.3354014126 0.3939851596  Biso 1.0 S
S17 1.0000000000 0.3354136493 0.0000000000 0.3939857461  Biso 1.0 S
S18 1.0000000000 0.6645875374 0.6645875374 0.3939858260  Biso 1.0 S
Sn19 1.0000000000 0.0000000000 0.0000000000 0.2499973534  Biso 1.0 Sn
Sn20 1.0000000000 0.0000000000 0.0000000000 0.7500026466  Biso 1.0 Sn
