# AFLOW.org Repositories
# Nb3S4   [HEX,HEX,hP14] (STD_PRIM doi:10.
data_Nb3S4
_pd_phase_name Nb3S4
_cell_length_a  9.6642328911
_cell_length_b  9.6642328911
_cell_length_c  3.4046282172
_cell_angle_alpha  90.0000000000
_cell_angle_beta  90.0000000000
_cell_angle_gamma  120.0000000000
_symmetry_space_group_name_H-M  'P1'
_symmetry_Int_Tables_Number  1
loop_
_symmetry_equiv_pos_site_id
_symmetry_equiv_pos_as_xyz
  1  x,y,z
loop_
 _atom_site_label
 _atom_site_occupancy
 _atom_site_fract_x
 _atom_site_fract_y
 _atom_site_fract_z
 _atom_site_thermal_displace_type
 _atom_site_B_iso_or_equiv
 _atom_site_type_symbol
Nb1 1.0000000000 0.1135565434 0.4853958333 0.2500000000  Biso 1.0 Nb
Nb2 1.0000000000 0.5146012633 0.6281589013 0.2500000000  Biso 1.0 Nb
Nb3 1.0000000000 0.3718411508 0.8864452908 0.2500000000  Biso 1.0 Nb
Nb4 1.0000000000 0.8864434566 0.5146041667 0.7500000000  Biso 1.0 Nb
Nb5 1.0000000000 0.4853987367 0.3718410987 0.7500000000  Biso 1.0 Nb
Nb6 1.0000000000 0.6281588492 0.1135547092 0.7500000000  Biso 1.0 Nb
S7 1.0000000000 0.6666692611 0.3333329564 0.2500000000  Biso 1.0 S
S8 1.0000000000 0.3333307389 0.6666670436 0.7500000000  Biso 1.0 S
S9 1.0000000000 0.2877217167 0.3457648035 0.2500000000  Biso 1.0 S
S10 1.0000000000 0.6542331500 0.9419485874 0.2500000000  Biso 1.0 S
S11 1.0000000000 0.0580424287 0.7122848516 0.2500000000  Biso 1.0 S
S12 1.0000000000 0.7122782833 0.6542351965 0.7500000000  Biso 1.0 S
S13 1.0000000000 0.3457668500 0.0580514126 0.7500000000  Biso 1.0 S
S14 1.0000000000 0.9419575713 0.2877151484 0.7500000000  Biso 1.0 S
