# AFLOW.org Repositories
# Ni1P1   [ORC,ORC,oP16] (STD_PRIM doi:10.
data_Ni1P1
_pd_phase_name Ni1P1
_cell_length_a  4.8439908244
_cell_length_b  6.0511296971
_cell_length_c  6.8385929259
_cell_angle_alpha  90.0000000000
_cell_angle_beta  90.0000000000
_cell_angle_gamma  90.0000000000
_symmetry_space_group_name_H-M  'P1'
_symmetry_Int_Tables_Number  1
loop_
_symmetry_equiv_pos_site_id
_symmetry_equiv_pos_as_xyz
  1  x,y,z
loop_
 _atom_site_label
 _atom_site_occupancy
 _atom_site_fract_x
 _atom_site_fract_y
 _atom_site_fract_z
 _atom_site_thermal_displace_type
 _atom_site_B_iso_or_equiv
 _atom_site_type_symbol
Ni1 1.0000000000 0.0109981295 0.1938459274 0.6045108353  Biso 1.0 Ni
Ni2 1.0000000000 0.9890018705 0.3061540726 0.1045108353  Biso 1.0 Ni
Ni3 1.0000000000 0.5109981295 0.8061540726 0.8954891647  Biso 1.0 Ni
Ni4 1.0000000000 0.4890018705 0.6938459274 0.3954891647  Biso 1.0 Ni
Ni5 1.0000000000 0.9890018705 0.8061540726 0.3954891647  Biso 1.0 Ni
Ni6 1.0000000000 0.0109981295 0.6938459274 0.8954891647  Biso 1.0 Ni
Ni7 1.0000000000 0.4890018705 0.1938459274 0.1045108353  Biso 1.0 Ni
Ni8 1.0000000000 0.5109981295 0.3061540726 0.6045108353  Biso 1.0 Ni
P9 1.0000000000 0.1743410442 0.0568013107 0.8888634224  Biso 1.0 P
P10 1.0000000000 0.8256589558 0.4431986893 0.3888634224  Biso 1.0 P
P11 1.0000000000 0.6743410442 0.9431986893 0.6111365776  Biso 1.0 P
P12 1.0000000000 0.3256589558 0.5568013107 0.1111365776  Biso 1.0 P
P13 1.0000000000 0.8256589558 0.9431986893 0.1111365776  Biso 1.0 P
P14 1.0000000000 0.1743410442 0.5568013107 0.6111365776  Biso 1.0 P
P15 1.0000000000 0.3256589558 0.0568013107 0.3888634224  Biso 1.0 P
P16 1.0000000000 0.6743410442 0.4431986893 0.8888634224  Biso 1.0 P
