# AFLOW.org Repositories
# Ni1P3   [BCC,BCC,cI32] (STD_PRIM doi:10.
data_Ni1P3
_pd_phase_name Ni1P3
_cell_length_a  6.8144279635
_cell_length_b  6.8144279635
_cell_length_c  6.8144279635
_cell_angle_alpha  109.4712206345
_cell_angle_beta  109.4712206345
_cell_angle_gamma  109.4712206345
_symmetry_space_group_name_H-M  'P1'
_symmetry_Int_Tables_Number  1
loop_
_symmetry_equiv_pos_site_id
_symmetry_equiv_pos_as_xyz
  1  x,y,z
loop_
 _atom_site_label
 _atom_site_occupancy
 _atom_site_fract_x
 _atom_site_fract_y
 _atom_site_fract_z
 _atom_site_thermal_displace_type
 _atom_site_B_iso_or_equiv
 _atom_site_type_symbol
Ni1 1.0000000000 0.5000000000 0.0000000000 0.0000000000  Biso 1.0 Ni
Ni2 1.0000000000 0.5000000000 0.5000000000 0.5000000000  Biso 1.0 Ni
Ni3 1.0000000000 0.0000000000 0.0000000000 0.5000000000  Biso 1.0 Ni
Ni4 1.0000000000 0.0000000000 0.5000000000 0.0000000000  Biso 1.0 Ni
P5 1.0000000000 0.3566789211 0.8586490382 0.2153279593  Biso 1.0 P
P6 1.0000000000 0.6433210789 0.8586490382 0.5019701171  Biso 1.0 P
P7 1.0000000000 0.3566789211 0.1413509618 0.4980298829  Biso 1.0 P
P8 1.0000000000 0.6433210789 0.1413509618 0.7846720407  Biso 1.0 P
P9 1.0000000000 0.1413509618 0.7846720407 0.6433210789  Biso 1.0 P
P10 1.0000000000 0.1413509618 0.4980298829 0.3566789211  Biso 1.0 P
P11 1.0000000000 0.8586490382 0.5019701171 0.6433210789  Biso 1.0 P
P12 1.0000000000 0.8586490382 0.2153279593 0.3566789211  Biso 1.0 P
P13 1.0000000000 0.4980298829 0.3566789211 0.1413509618  Biso 1.0 P
P14 1.0000000000 0.7846720407 0.6433210789 0.1413509618  Biso 1.0 P
P15 1.0000000000 0.2153279593 0.3566789211 0.8586490382  Biso 1.0 P
P16 1.0000000000 0.5019701171 0.6433210789 0.8586490382  Biso 1.0 P
