# AFLOW.org Repositories
# Ni2Sc3Si3   [ORCC,ORCC,oS32] (STD_PRIM d
data_Ni2Sc3Si3
_pd_phase_name Ni2Sc3Si3
_cell_length_a  5.2637677200
_cell_length_b  5.2637677200
_cell_length_c  13.2272421480
_cell_angle_alpha  90.0000000000
_cell_angle_beta  90.0000000000
_cell_angle_gamma  135.2600988062
_symmetry_space_group_name_H-M  'P1'
_symmetry_Int_Tables_Number  1
loop_
_symmetry_equiv_pos_site_id
_symmetry_equiv_pos_as_xyz
  1  x,y,z
loop_
 _atom_site_label
 _atom_site_occupancy
 _atom_site_fract_x
 _atom_site_fract_y
 _atom_site_fract_z
 _atom_site_thermal_displace_type
 _atom_site_B_iso_or_equiv
 _atom_site_type_symbol
Ni1 1.0000000000 0.7918705366 0.2081294634 0.4045986995  Biso 1.0 Ni
Ni2 1.0000000000 0.2081294634 0.7918705366 0.9045986995  Biso 1.0 Ni
Ni3 1.0000000000 0.7918705366 0.2081294634 0.0954013005  Biso 1.0 Ni
Ni4 1.0000000000 0.2081294634 0.7918705366 0.5954013005  Biso 1.0 Ni
Sc5 1.0000000000 0.9166383629 0.0833616371 0.8887174487  Biso 1.0 Sc
Sc6 1.0000000000 0.0833616371 0.9166383629 0.3887174487  Biso 1.0 Sc
Sc7 1.0000000000 0.9166383629 0.0833616371 0.6112825513  Biso 1.0 Sc
Sc8 1.0000000000 0.0833616371 0.9166383629 0.1112825513  Biso 1.0 Sc
Sc9 1.0000000000 0.6356747567 0.3643252433 0.7500000000  Biso 1.0 Sc
Sc10 1.0000000000 0.3643252433 0.6356747567 0.2500000000  Biso 1.0 Sc
Si11 1.0000000000 0.6173825152 0.3826174848 0.9612123204  Biso 1.0 Si
Si12 1.0000000000 0.3826174848 0.6173825152 0.4612123204  Biso 1.0 Si
Si13 1.0000000000 0.6173825152 0.3826174848 0.5387876796  Biso 1.0 Si
Si14 1.0000000000 0.3826174848 0.6173825152 0.0387876796  Biso 1.0 Si
Si15 1.0000000000 0.3383212952 0.6616787048 0.7500000000  Biso 1.0 Si
Si16 1.0000000000 0.6616787048 0.3383212952 0.2500000000  Biso 1.0 Si
