# AFLOW.org Repositories
# Ni2Sb2Tb1   [TET,TET,tP10] (STD_PRIM doi
data_Ni2Sb2Tb1
_pd_phase_name Ni2Sb2Tb1
_cell_length_a  4.4267786828
_cell_length_b  4.4267786828
_cell_length_c  9.8417442703
_cell_angle_alpha  90.0000000000
_cell_angle_beta  90.0000000000
_cell_angle_gamma  90.0000000000
_symmetry_space_group_name_H-M  'P1'
_symmetry_Int_Tables_Number  1
loop_
_symmetry_equiv_pos_site_id
_symmetry_equiv_pos_as_xyz
  1  x,y,z
loop_
 _atom_site_label
 _atom_site_occupancy
 _atom_site_fract_x
 _atom_site_fract_y
 _atom_site_fract_z
 _atom_site_thermal_displace_type
 _atom_site_B_iso_or_equiv
 _atom_site_type_symbol
Ni1 1.0000000000 0.7500000000 0.2500000000 0.0000000000  Biso 1.0 Ni
Ni2 1.0000000000 0.2500000000 0.7500000000 0.0000000000  Biso 1.0 Ni
Ni3 1.0000000000 0.2500000000 0.2500000000 0.3743430499  Biso 1.0 Ni
Ni4 1.0000000000 0.7500000000 0.7500000000 0.6256569501  Biso 1.0 Ni
Sb5 1.0000000000 0.7500000000 0.2500000000 0.5000000000  Biso 1.0 Sb
Sb6 1.0000000000 0.2500000000 0.7500000000 0.5000000000  Biso 1.0 Sb
Sb7 1.0000000000 0.2500000000 0.2500000000 0.1244676084  Biso 1.0 Sb
Sb8 1.0000000000 0.7500000000 0.7500000000 0.8755323916  Biso 1.0 Sb
Tb9 1.0000000000 0.2500000000 0.2500000000 0.7640534529  Biso 1.0 Tb
Tb10 1.0000000000 0.7500000000 0.7500000000 0.2359465471  Biso 1.0 Tb
