# AFLOW.org Repositories
# Ni2Ta1   [BCT,BCT2,tI6] (STD_PRIM doi:10
data_Ni2Ta1
_pd_phase_name Ni2Ta1
_cell_length_a  4.5204483621
_cell_length_b  4.5204483621
_cell_length_c  4.5204483621
_cell_angle_alpha  138.8965514712
_cell_angle_beta  138.8965514712
_cell_angle_gamma  59.5326255221
_symmetry_space_group_name_H-M  'P1'
_symmetry_Int_Tables_Number  1
loop_
_symmetry_equiv_pos_site_id
_symmetry_equiv_pos_as_xyz
  1  x,y,z
loop_
 _atom_site_label
 _atom_site_occupancy
 _atom_site_fract_x
 _atom_site_fract_y
 _atom_site_fract_z
 _atom_site_thermal_displace_type
 _atom_site_B_iso_or_equiv
 _atom_site_type_symbol
Ni1 1.0000000000 0.6665718231 0.6665718231 0.0000000000  Biso 1.0 Ni
Ni2 1.0000000000 0.3334281769 0.3334281769 0.0000000000  Biso 1.0 Ni
Ta3 1.0000000000 0.0000000000 0.0000000000 0.0000000000  Biso 1.0 Ta
