# AFLOW.org Repositories
# O2Si1   [HEX,HEX,hP18] (STD_PRIM doi:10.
data_O2Si1
_pd_phase_name O2Si1
_cell_length_a  9.2160125161
_cell_length_b  9.2160125161
_cell_length_c  5.2599169997
_cell_angle_alpha  90.0000000000
_cell_angle_beta  90.0000000000
_cell_angle_gamma  120.0000000000
_symmetry_space_group_name_H-M  'P1'
_symmetry_Int_Tables_Number  1
loop_
_symmetry_equiv_pos_site_id
_symmetry_equiv_pos_as_xyz
  1  x,y,z
loop_
 _atom_site_label
 _atom_site_occupancy
 _atom_site_fract_x
 _atom_site_fract_y
 _atom_site_fract_z
 _atom_site_thermal_displace_type
 _atom_site_B_iso_or_equiv
 _atom_site_type_symbol
O1 1.0000000000 0.2373617606 0.7626365731 0.7500000000  Biso 1.0 O
O2 1.0000000000 0.2373634269 0.4747251875 0.7500000000  Biso 1.0 O
O3 1.0000000000 0.5252748125 0.7626382394 0.7500000000  Biso 1.0 O
O4 1.0000000000 0.7626382394 0.2373634269 0.2500000000  Biso 1.0 O
O5 1.0000000000 0.7626365731 0.5252748125 0.2500000000  Biso 1.0 O
O6 1.0000000000 0.4747251875 0.2373617606 0.2500000000  Biso 1.0 O
O7 1.0000000000 0.5000000000 0.0000000000 0.5000000000  Biso 1.0 O
O8 1.0000000000 0.0000000000 0.5000000000 0.5000000000  Biso 1.0 O
O9 1.0000000000 0.5000000000 0.5000000000 0.5000000000  Biso 1.0 O
O10 1.0000000000 0.5000000000 0.0000000000 0.0000000000  Biso 1.0 O
O11 1.0000000000 0.0000000000 0.5000000000 0.0000000000  Biso 1.0 O
O12 1.0000000000 0.5000000000 0.5000000000 0.0000000000  Biso 1.0 O
Si13 1.0000000000 0.4415453058 0.8830915448 0.7500000000  Biso 1.0 Si
Si14 1.0000000000 0.1169084552 0.5584537611 0.7500000000  Biso 1.0 Si
Si15 1.0000000000 0.4415462389 0.5584546942 0.7500000000  Biso 1.0 Si
Si16 1.0000000000 0.5584546942 0.1169084552 0.2500000000  Biso 1.0 Si
Si17 1.0000000000 0.8830915448 0.4415462389 0.2500000000  Biso 1.0 Si
Si18 1.0000000000 0.5584537611 0.4415453058 0.2500000000  Biso 1.0 Si
