# AFLOW.org Repositories
# O2Ti1   [BCT,BCT2,tI12] (STD_PRIM doi:10
data_O2Ti1
_pd_phase_name O2Ti1
_cell_length_a  5.5894477715
_cell_length_b  5.5894477715
_cell_length_c  5.5894477715
_cell_angle_alpha  139.4807828169
_cell_angle_beta  139.4807828169
_cell_angle_gamma  58.6425109132
_symmetry_space_group_name_H-M  'P1'
_symmetry_Int_Tables_Number  1
loop_
_symmetry_equiv_pos_site_id
_symmetry_equiv_pos_as_xyz
  1  x,y,z
loop_
 _atom_site_label
 _atom_site_occupancy
 _atom_site_fract_x
 _atom_site_fract_y
 _atom_site_fract_z
 _atom_site_thermal_displace_type
 _atom_site_B_iso_or_equiv
 _atom_site_type_symbol
O1 1.0000000000 0.5817043204 0.8317043204 0.7500000000  Biso 1.0 O
O2 1.0000000000 0.8317043204 0.5817043204 0.2500000000  Biso 1.0 O
O3 1.0000000000 0.4182956796 0.1682956796 0.2500000000  Biso 1.0 O
O4 1.0000000000 0.1682956796 0.4182956796 0.7500000000  Biso 1.0 O
Ti5 1.0000000000 0.3750000000 0.6250000000 0.7500000000  Biso 1.0 Ti
Ti6 1.0000000000 0.6250000000 0.3750000000 0.2500000000  Biso 1.0 Ti
