# AFLOW.org Repositories
# O2Zr1   [ORC,ORC,oP12] (STD_PRIM doi:10.
data_O2Zr1
_pd_phase_name O2Zr1
_cell_length_a  3.3860622702
_cell_length_b  5.6341663618
_cell_length_c  6.5826417104
_cell_angle_alpha  90.0000000000
_cell_angle_beta  90.0000000000
_cell_angle_gamma  90.0000000000
_symmetry_space_group_name_H-M  'P1'
_symmetry_Int_Tables_Number  1
loop_
_symmetry_equiv_pos_site_id
_symmetry_equiv_pos_as_xyz
  1  x,y,z
loop_
 _atom_site_label
 _atom_site_occupancy
 _atom_site_fract_x
 _atom_site_fract_y
 _atom_site_fract_z
 _atom_site_thermal_displace_type
 _atom_site_B_iso_or_equiv
 _atom_site_type_symbol
O1 1.0000000000 0.2500000000 0.3607772763 0.5762276501  Biso 1.0 O
O2 1.0000000000 0.7500000000 0.1392227237 0.0762276501  Biso 1.0 O
O3 1.0000000000 0.7500000000 0.6392227237 0.4237723499  Biso 1.0 O
O4 1.0000000000 0.2500000000 0.8607772763 0.9237723499  Biso 1.0 O
O5 1.0000000000 0.7500000000 0.0228630083 0.6595814034  Biso 1.0 O
O6 1.0000000000 0.2500000000 0.4771369917 0.1595814034  Biso 1.0 O
O7 1.0000000000 0.2500000000 0.9771369917 0.3404185966  Biso 1.0 O
O8 1.0000000000 0.7500000000 0.5228630083 0.8404185966  Biso 1.0 O
Zr9 1.0000000000 0.2500000000 0.2481562648 0.8912909055  Biso 1.0 Zr
Zr10 1.0000000000 0.7500000000 0.2518437352 0.3912909055  Biso 1.0 Zr
Zr11 1.0000000000 0.7500000000 0.7518437352 0.1087090945  Biso 1.0 Zr
Zr12 1.0000000000 0.2500000000 0.7481562648 0.6087090945  Biso 1.0 Zr
