# AFLOW.org Repositories
# O3Rb2Tb1   [ORCC,ORCC,oS24] (STD_PRIM do
data_O3Rb2Tb1
_pd_phase_name O3Rb2Tb1
_cell_length_a  6.7389065898
_cell_length_b  6.7389065898
_cell_length_c  6.3862433904
_cell_angle_alpha  90.0000000000
_cell_angle_beta  90.0000000000
_cell_angle_gamma  113.1552004541
_symmetry_space_group_name_H-M  'P1'
_symmetry_Int_Tables_Number  1
loop_
_symmetry_equiv_pos_site_id
_symmetry_equiv_pos_as_xyz
  1  x,y,z
loop_
 _atom_site_label
 _atom_site_occupancy
 _atom_site_fract_x
 _atom_site_fract_y
 _atom_site_fract_z
 _atom_site_thermal_displace_type
 _atom_site_B_iso_or_equiv
 _atom_site_type_symbol
O1 1.0000000000 0.1523231924 0.9005241399 0.0044459808  Biso 1.0 O
O2 1.0000000000 0.8476768076 0.0994758601 0.5044459808  Biso 1.0 O
O3 1.0000000000 0.0994758601 0.8476768076 0.5044459808  Biso 1.0 O
O4 1.0000000000 0.9005241399 0.1523231924 0.0044459808  Biso 1.0 O
O5 1.0000000000 0.6259468525 0.6259468525 0.8524552421  Biso 1.0 O
O6 1.0000000000 0.3740531475 0.3740531475 0.3524552421  Biso 1.0 O
Rb7 1.0000000000 0.1941620535 0.5232969344 0.7338775941  Biso 1.0 Rb
Rb8 1.0000000000 0.8058379465 0.4767030656 0.2338775941  Biso 1.0 Rb
Rb9 1.0000000000 0.4767030656 0.8058379465 0.2338775941  Biso 1.0 Rb
Rb10 1.0000000000 0.5232969344 0.1941620535 0.7338775941  Biso 1.0 Rb
Tb11 1.0000000000 0.9041196329 0.9041196329 0.7708976082  Biso 1.0 Tb
Tb12 1.0000000000 0.0958803671 0.0958803671 0.2708976082  Biso 1.0 Tb
