# AFLOW.org Repositories
# O3Sn1Sr1   [ORC,ORC,oP20] (STD_PRIM doi:
data_O3Sn1Sr1
_pd_phase_name O3Sn1Sr1
_cell_length_a  5.8410768516
_cell_length_b  5.9070688115
_cell_length_c  8.2786637385
_cell_angle_alpha  90.0000000000
_cell_angle_beta  90.0000000000
_cell_angle_gamma  90.0000000000
_symmetry_space_group_name_H-M  'P1'
_symmetry_Int_Tables_Number  1
loop_
_symmetry_equiv_pos_site_id
_symmetry_equiv_pos_as_xyz
  1  x,y,z
loop_
 _atom_site_label
 _atom_site_occupancy
 _atom_site_fract_x
 _atom_site_fract_y
 _atom_site_fract_z
 _atom_site_thermal_displace_type
 _atom_site_B_iso_or_equiv
 _atom_site_type_symbol
O1 1.0000000000 0.0844541648 0.5257334746 0.7500000000  Biso 1.0 O
O2 1.0000000000 0.5844541648 0.9742665254 0.2500000000  Biso 1.0 O
O3 1.0000000000 0.9155458352 0.4742665254 0.2500000000  Biso 1.0 O
O4 1.0000000000 0.4155458352 0.0257334746 0.7500000000  Biso 1.0 O
O5 1.0000000000 0.7086435216 0.7103584940 0.9551582194  Biso 1.0 O
O6 1.0000000000 0.2086435216 0.7896415060 0.0448417806  Biso 1.0 O
O7 1.0000000000 0.2913564784 0.2896415060 0.4551582194  Biso 1.0 O
O8 1.0000000000 0.7913564784 0.2103584940 0.5448417806  Biso 1.0 O
O9 1.0000000000 0.2913564784 0.2896415060 0.0448417806  Biso 1.0 O
O10 1.0000000000 0.7913564784 0.2103584940 0.9551582194  Biso 1.0 O
O11 1.0000000000 0.7086435216 0.7103584940 0.5448417806  Biso 1.0 O
O12 1.0000000000 0.2086435216 0.7896415060 0.4551582194  Biso 1.0 O
Sn13 1.0000000000 0.0000000000 0.5000000000 0.0000000000  Biso 1.0 Sn
Sn14 1.0000000000 0.5000000000 0.0000000000 0.0000000000  Biso 1.0 Sn
Sn15 1.0000000000 0.0000000000 0.5000000000 0.5000000000  Biso 1.0 Sn
Sn16 1.0000000000 0.5000000000 0.0000000000 0.5000000000  Biso 1.0 Sn
Sr17 1.0000000000 0.5094741430 0.4603167100 0.7500000000  Biso 1.0 Sr
Sr18 1.0000000000 0.0094741430 0.0396832900 0.2500000000  Biso 1.0 Sr
Sr19 1.0000000000 0.4905258570 0.5396832900 0.2500000000  Biso 1.0 Sr
Sr20 1.0000000000 0.9905258570 0.9603167100 0.7500000000  Biso 1.0 Sr
