# AFLOW.org Repositories
# O4P1Y1   [BCT,BCT1,tI24] (STD_PRIM doi:1
data_O4P1Y1
_pd_phase_name O4P1Y1
_cell_length_a  5.7944997609
_cell_length_b  5.7944997609
_cell_length_c  5.7944997609
_cell_angle_alpha  105.9579714045
_cell_angle_beta  105.9579714045
_cell_angle_gamma  116.7523893264
_symmetry_space_group_name_H-M  'P1'
_symmetry_Int_Tables_Number  1
loop_
_symmetry_equiv_pos_site_id
_symmetry_equiv_pos_as_xyz
  1  x,y,z
loop_
 _atom_site_label
 _atom_site_occupancy
 _atom_site_fract_x
 _atom_site_fract_y
 _atom_site_fract_z
 _atom_site_thermal_displace_type
 _atom_site_B_iso_or_equiv
 _atom_site_type_symbol
O1 1.0000000000 0.2153243214 0.7911580824 0.5758337611  Biso 1.0 O
O2 1.0000000000 0.2153243214 0.1394905603 0.9241662389  Biso 1.0 O
O3 1.0000000000 0.2911580824 0.7153243214 0.0758337611  Biso 1.0 O
O4 1.0000000000 0.6394905603 0.7153243214 0.4241662389  Biso 1.0 O
O5 1.0000000000 0.7846756786 0.8605094397 0.0758337611  Biso 1.0 O
O6 1.0000000000 0.7846756786 0.2088419176 0.4241662389  Biso 1.0 O
O7 1.0000000000 0.7088419176 0.2846756786 0.9241662389  Biso 1.0 O
O8 1.0000000000 0.3605094397 0.2846756786 0.5758337611  Biso 1.0 O
P9 1.0000000000 0.3750000000 0.1250000000 0.7500000000  Biso 1.0 P
P10 1.0000000000 0.6250000000 0.8750000000 0.2500000000  Biso 1.0 P
Y11 1.0000000000 0.1250000000 0.3750000000 0.2500000000  Biso 1.0 Y
Y12 1.0000000000 0.8750000000 0.6250000000 0.7500000000  Biso 1.0 Y
