# AFLOW.org Repositories
# O4P1Pr1   [BCT,BCT1,tI24] (STD_PRIM doi:
data_O4P1Pr1
_pd_phase_name O4P1Pr1
_cell_length_a  5.9950962837
_cell_length_b  5.9950962837
_cell_length_c  5.9950962837
_cell_angle_alpha  105.9561160507
_cell_angle_beta  105.9561160507
_cell_angle_gamma  116.7563847898
_symmetry_space_group_name_H-M  'P1'
_symmetry_Int_Tables_Number  1
loop_
_symmetry_equiv_pos_site_id
_symmetry_equiv_pos_as_xyz
  1  x,y,z
loop_
 _atom_site_label
 _atom_site_occupancy
 _atom_site_fract_x
 _atom_site_fract_y
 _atom_site_fract_z
 _atom_site_thermal_displace_type
 _atom_site_B_iso_or_equiv
 _atom_site_type_symbol
O1 1.0000000000 0.8571106131 0.7772997335 0.0798108795  Biso 1.0 O
O2 1.0000000000 0.1974888540 0.7772997335 0.4201891205  Biso 1.0 O
O3 1.0000000000 0.2772997335 0.3571106131 0.5798108795  Biso 1.0 O
O4 1.0000000000 0.2772997335 0.6974888540 0.9201891205  Biso 1.0 O
O5 1.0000000000 0.8025111460 0.2227002665 0.5798108795  Biso 1.0 O
O6 1.0000000000 0.1428893869 0.2227002665 0.9201891205  Biso 1.0 O
O7 1.0000000000 0.7227002665 0.6428893869 0.4201891205  Biso 1.0 O
O8 1.0000000000 0.7227002665 0.3025111460 0.0798108795  Biso 1.0 O
P9 1.0000000000 0.8750000000 0.6250000000 0.2500000000  Biso 1.0 P
P10 1.0000000000 0.1250000000 0.3750000000 0.7500000000  Biso 1.0 P
Pr11 1.0000000000 0.6250000000 0.8750000000 0.7500000000  Biso 1.0 Pr
Pr12 1.0000000000 0.3750000000 0.1250000000 0.2500000000  Biso 1.0 Pr
