# AFLOW.org Repositories
# O4Pd3Sr1   [CUB,CUB,cP16] (STD_PRIM doi:
data_O4Pd3Sr1
_pd_phase_name O4Pd3Sr1
_cell_length_a  5.9224408479
_cell_length_b  5.9224408479
_cell_length_c  5.9224408479
_cell_angle_alpha  90.0000000000
_cell_angle_beta  90.0000000000
_cell_angle_gamma  90.0000000000
_symmetry_space_group_name_H-M  'P1'
_symmetry_Int_Tables_Number  1
loop_
_symmetry_equiv_pos_site_id
_symmetry_equiv_pos_as_xyz
  1  x,y,z
loop_
 _atom_site_label
 _atom_site_occupancy
 _atom_site_fract_x
 _atom_site_fract_y
 _atom_site_fract_z
 _atom_site_thermal_displace_type
 _atom_site_B_iso_or_equiv
 _atom_site_type_symbol
O1 1.0000000000 0.7500000000 0.7500000000 0.2500000000  Biso 1.0 O
O2 1.0000000000 0.2500000000 0.2500000000 0.2500000000  Biso 1.0 O
O3 1.0000000000 0.2500000000 0.7500000000 0.7500000000  Biso 1.0 O
O4 1.0000000000 0.7500000000 0.2500000000 0.7500000000  Biso 1.0 O
O5 1.0000000000 0.2500000000 0.2500000000 0.7500000000  Biso 1.0 O
O6 1.0000000000 0.7500000000 0.7500000000 0.7500000000  Biso 1.0 O
O7 1.0000000000 0.7500000000 0.2500000000 0.2500000000  Biso 1.0 O
O8 1.0000000000 0.2500000000 0.7500000000 0.2500000000  Biso 1.0 O
Pd9 1.0000000000 0.7500000000 0.0000000000 0.5000000000  Biso 1.0 Pd
Pd10 1.0000000000 0.2500000000 0.0000000000 0.5000000000  Biso 1.0 Pd
Pd11 1.0000000000 0.5000000000 0.7500000000 0.0000000000  Biso 1.0 Pd
Pd12 1.0000000000 0.5000000000 0.2500000000 0.0000000000  Biso 1.0 Pd
Pd13 1.0000000000 0.0000000000 0.5000000000 0.2500000000  Biso 1.0 Pd
Pd14 1.0000000000 0.0000000000 0.5000000000 0.7500000000  Biso 1.0 Pd
Sr15 1.0000000000 0.0000000000 0.0000000000 0.0000000000  Biso 1.0 Sr
Sr16 1.0000000000 0.5000000000 0.5000000000 0.5000000000  Biso 1.0 Sr
