# AFLOW.org Repositories
# O4Si1Zr1   [BCT,BCT1,tI24] (STD_PRIM doi
data_O4Si1Zr1
_pd_phase_name O4Si1Zr1
_cell_length_a  5.6186755920
_cell_length_b  5.6186755920
_cell_length_c  5.6186755920
_cell_angle_alpha  106.7969457655
_cell_angle_beta  106.7969457655
_cell_angle_gamma  114.9633516387
_symmetry_space_group_name_H-M  'P1'
_symmetry_Int_Tables_Number  1
loop_
_symmetry_equiv_pos_site_id
_symmetry_equiv_pos_as_xyz
  1  x,y,z
loop_
 _atom_site_label
 _atom_site_occupancy
 _atom_site_fract_x
 _atom_site_fract_y
 _atom_site_fract_z
 _atom_site_thermal_displace_type
 _atom_site_B_iso_or_equiv
 _atom_site_type_symbol
O1 1.0000000000 0.8045915549 0.8711115288 0.0665199739  Biso 1.0 O
O2 1.0000000000 0.8045915549 0.2380715810 0.4334800261  Biso 1.0 O
O3 1.0000000000 0.7380715810 0.3045915549 0.9334800261  Biso 1.0 O
O4 1.0000000000 0.3711115288 0.3045915549 0.5665199739  Biso 1.0 O
O5 1.0000000000 0.1954084451 0.7619284190 0.5665199739  Biso 1.0 O
O6 1.0000000000 0.1954084451 0.1288884712 0.9334800261  Biso 1.0 O
O7 1.0000000000 0.2619284190 0.6954084451 0.0665199739  Biso 1.0 O
O8 1.0000000000 0.6288884712 0.6954084451 0.4334800261  Biso 1.0 O
Si9 1.0000000000 0.6250000000 0.8750000000 0.2500000000  Biso 1.0 Si
Si10 1.0000000000 0.3750000000 0.1250000000 0.7500000000  Biso 1.0 Si
Zr11 1.0000000000 0.8750000000 0.6250000000 0.7500000000  Biso 1.0 Zr
Zr12 1.0000000000 0.1250000000 0.3750000000 0.2500000000  Biso 1.0 Zr
