# AFLOW.org Repositories
# O7Pt2Tl2   [FCC,FCC,cF88] (STD_PRIM doi:
data_O7Pt2Tl2
_pd_phase_name O7Pt2Tl2
_cell_length_a  7.2904805700
_cell_length_b  7.2904805700
_cell_length_c  7.2904805700
_cell_angle_alpha  60.0000000000
_cell_angle_beta  60.0000000000
_cell_angle_gamma  60.0000000000
_symmetry_space_group_name_H-M  'P1'
_symmetry_Int_Tables_Number  1
loop_
_symmetry_equiv_pos_site_id
_symmetry_equiv_pos_as_xyz
  1  x,y,z
loop_
 _atom_site_label
 _atom_site_occupancy
 _atom_site_fract_x
 _atom_site_fract_y
 _atom_site_fract_z
 _atom_site_thermal_displace_type
 _atom_site_B_iso_or_equiv
 _atom_site_type_symbol
O1 1.0000000000 0.0000000000 0.0000000000 0.0000000000  Biso 1.0 O
O2 1.0000000000 0.2500000000 0.2500000000 0.2500000000  Biso 1.0 O
O3 1.0000000000 0.2903330495 0.7096669505 0.7096669505  Biso 1.0 O
O4 1.0000000000 0.7096669505 0.2903330495 0.2903330495  Biso 1.0 O
O5 1.0000000000 0.2903330495 0.7096669505 0.2903330495  Biso 1.0 O
O6 1.0000000000 0.7096669505 0.2903330495 0.7096669505  Biso 1.0 O
O7 1.0000000000 0.7096669505 0.7096669505 0.2903330495  Biso 1.0 O
O8 1.0000000000 0.2903330495 0.2903330495 0.7096669505  Biso 1.0 O
O9 1.0000000000 0.5403330495 0.9596669505 0.5403330495  Biso 1.0 O
O10 1.0000000000 0.9596669505 0.5403330495 0.9596669505  Biso 1.0 O
O11 1.0000000000 0.5403330495 0.9596669505 0.9596669505  Biso 1.0 O
O12 1.0000000000 0.9596669505 0.5403330495 0.5403330495  Biso 1.0 O
O13 1.0000000000 0.5403330495 0.5403330495 0.9596669505  Biso 1.0 O
O14 1.0000000000 0.9596669505 0.9596669505 0.5403330495  Biso 1.0 O
Pt15 1.0000000000 0.6250000000 0.1250000000 0.6250000000  Biso 1.0 Pt
Pt16 1.0000000000 0.1250000000 0.6250000000 0.6250000000  Biso 1.0 Pt
Pt17 1.0000000000 0.6250000000 0.6250000000 0.6250000000  Biso 1.0 Pt
Pt18 1.0000000000 0.6250000000 0.6250000000 0.1250000000  Biso 1.0 Pt
Tl19 1.0000000000 0.1250000000 0.6250000000 0.1250000000  Biso 1.0 Tl
Tl20 1.0000000000 0.6250000000 0.1250000000 0.1250000000  Biso 1.0 Tl
Tl21 1.0000000000 0.1250000000 0.1250000000 0.1250000000  Biso 1.0 Tl
Tl22 1.0000000000 0.1250000000 0.1250000000 0.6250000000  Biso 1.0 Tl
