# AFLOW.org Repositories
# O7Ru2Y2   [FCC,FCC,cF88] (STD_PRIM doi:1
data_O7Ru2Y2
_pd_phase_name O7Ru2Y2
_cell_length_a  7.2678343260
_cell_length_b  7.2678343260
_cell_length_c  7.2678343260
_cell_angle_alpha  60.0000000000
_cell_angle_beta  60.0000000000
_cell_angle_gamma  60.0000000000
_symmetry_space_group_name_H-M  'P1'
_symmetry_Int_Tables_Number  1
loop_
_symmetry_equiv_pos_site_id
_symmetry_equiv_pos_as_xyz
  1  x,y,z
loop_
 _atom_site_label
 _atom_site_occupancy
 _atom_site_fract_x
 _atom_site_fract_y
 _atom_site_fract_z
 _atom_site_thermal_displace_type
 _atom_site_B_iso_or_equiv
 _atom_site_type_symbol
O1 1.0000000000 0.7876038750 0.7876038750 0.2123961250  Biso 1.0 O
O2 1.0000000000 0.2123961250 0.2123961250 0.7876038750  Biso 1.0 O
O3 1.0000000000 0.7876038750 0.2123961250 0.7876038750  Biso 1.0 O
O4 1.0000000000 0.2123961250 0.7876038750 0.2123961250  Biso 1.0 O
O5 1.0000000000 0.2123961250 0.7876038750 0.7876038750  Biso 1.0 O
O6 1.0000000000 0.7876038750 0.2123961250 0.2123961250  Biso 1.0 O
O7 1.0000000000 0.5376038750 0.9623961250 0.5376038750  Biso 1.0 O
O8 1.0000000000 0.9623961250 0.5376038750 0.9623961250  Biso 1.0 O
O9 1.0000000000 0.5376038750 0.5376038750 0.9623961250  Biso 1.0 O
O10 1.0000000000 0.9623961250 0.9623961250 0.5376038750  Biso 1.0 O
O11 1.0000000000 0.5376038750 0.9623961250 0.9623961250  Biso 1.0 O
O12 1.0000000000 0.9623961250 0.5376038750 0.5376038750  Biso 1.0 O
O13 1.0000000000 0.5000000000 0.5000000000 0.5000000000  Biso 1.0 O
O14 1.0000000000 0.2500000000 0.2500000000 0.2500000000  Biso 1.0 O
Ru15 1.0000000000 0.8750000000 0.8750000000 0.8750000000  Biso 1.0 Ru
Ru16 1.0000000000 0.3750000000 0.8750000000 0.8750000000  Biso 1.0 Ru
Ru17 1.0000000000 0.8750000000 0.3750000000 0.8750000000  Biso 1.0 Ru
Ru18 1.0000000000 0.8750000000 0.8750000000 0.3750000000  Biso 1.0 Ru
Y19 1.0000000000 0.3750000000 0.3750000000 0.3750000000  Biso 1.0 Y
Y20 1.0000000000 0.8750000000 0.3750000000 0.3750000000  Biso 1.0 Y
Y21 1.0000000000 0.3750000000 0.8750000000 0.3750000000  Biso 1.0 Y
Y22 1.0000000000 0.3750000000 0.3750000000 0.8750000000  Biso 1.0 Y
