# AFLOW.org Repositories
# Os1P2   [ORC,ORC,oP6] (STD_PRIM doi:10.1
data_Os1P2
_pd_phase_name Os1P2
_cell_length_a  2.9489715868
_cell_length_b  5.1177971003
_cell_length_c  5.9441746114
_cell_angle_alpha  90.0000000000
_cell_angle_beta  90.0000000000
_cell_angle_gamma  90.0000000000
_symmetry_space_group_name_H-M  'P1'
_symmetry_Int_Tables_Number  1
loop_
_symmetry_equiv_pos_site_id
_symmetry_equiv_pos_as_xyz
  1  x,y,z
loop_
 _atom_site_label
 _atom_site_occupancy
 _atom_site_fract_x
 _atom_site_fract_y
 _atom_site_fract_z
 _atom_site_thermal_displace_type
 _atom_site_B_iso_or_equiv
 _atom_site_type_symbol
Os1 1.0000000000 0.0000000000 0.0000000000 0.0000000000  Biso 1.0 Os
Os2 1.0000000000 0.5000000000 0.5000000000 0.5000000000  Biso 1.0 Os
P3 1.0000000000 0.0000000000 0.1624806202 0.6269443500  Biso 1.0 P
P4 1.0000000000 0.0000000000 0.8375193798 0.3730556500  Biso 1.0 P
P5 1.0000000000 0.5000000000 0.3375193798 0.1269443500  Biso 1.0 P
P6 1.0000000000 0.5000000000 0.6624806202 0.8730556500  Biso 1.0 P
