# AFLOW.org Repositories
# Os1Si3Th1   [BCT,BCT2,tI10] (STD_PRIM do
data_Os1Si3Th1
_pd_phase_name Os1Si3Th1
_cell_length_a  5.8522880953
_cell_length_b  5.8522880953
_cell_length_c  5.8522880953
_cell_angle_alpha  136.8616884281
_cell_angle_beta  136.8616884281
_cell_angle_gamma  62.6509274455
_symmetry_space_group_name_H-M  'P1'
_symmetry_Int_Tables_Number  1
loop_
_symmetry_equiv_pos_site_id
_symmetry_equiv_pos_as_xyz
  1  x,y,z
loop_
 _atom_site_label
 _atom_site_occupancy
 _atom_site_fract_x
 _atom_site_fract_y
 _atom_site_fract_z
 _atom_site_thermal_displace_type
 _atom_site_B_iso_or_equiv
 _atom_site_type_symbol
Os1 1.0000000000 0.3435589718 0.3435589718 0.0000000000  Biso 1.0 Os
Si2 1.0000000000 0.5821938294 0.5821938294 0.0000000000  Biso 1.0 Si
Si3 1.0000000000 0.2387977246 0.7387977246 0.5000000000  Biso 1.0 Si
Si4 1.0000000000 0.7387977246 0.2387977246 0.5000000000  Biso 1.0 Si
Th5 1.0000000000 0.0026517495 0.0026517495 0.0000000000  Biso 1.0 Th
