# AFLOW.org Repositories
# Os4Sb12Sr1   [BCC,BCC,cI34] (STD_PRIM do
data_Os4Sb12Sr1
_pd_phase_name Os4Sb12Sr1
_cell_length_a  8.1700445844
_cell_length_b  8.1700445844
_cell_length_c  8.1700445844
_cell_angle_alpha  109.4712206345
_cell_angle_beta  109.4712206345
_cell_angle_gamma  109.4712206345
_symmetry_space_group_name_H-M  'P1'
_symmetry_Int_Tables_Number  1
loop_
_symmetry_equiv_pos_site_id
_symmetry_equiv_pos_as_xyz
  1  x,y,z
loop_
 _atom_site_label
 _atom_site_occupancy
 _atom_site_fract_x
 _atom_site_fract_y
 _atom_site_fract_z
 _atom_site_thermal_displace_type
 _atom_site_B_iso_or_equiv
 _atom_site_type_symbol
Os1 1.0000000000 0.5000000000 0.0000000000 0.0000000000  Biso 1.0 Os
Os2 1.0000000000 0.5000000000 0.5000000000 0.5000000000  Biso 1.0 Os
Os3 1.0000000000 0.0000000000 0.0000000000 0.5000000000  Biso 1.0 Os
Os4 1.0000000000 0.0000000000 0.5000000000 0.0000000000  Biso 1.0 Os
Sb5 1.0000000000 0.1581455915 0.6579162055 0.8160617970  Biso 1.0 Sb
Sb6 1.0000000000 0.8418544085 0.6579162055 0.4997706139  Biso 1.0 Sb
Sb7 1.0000000000 0.1581455915 0.3420837945 0.5002293861  Biso 1.0 Sb
Sb8 1.0000000000 0.8418544085 0.3420837945 0.1839382030  Biso 1.0 Sb
Sb9 1.0000000000 0.3420837945 0.1839382030 0.8418544085  Biso 1.0 Sb
Sb10 1.0000000000 0.3420837945 0.5002293861 0.1581455915  Biso 1.0 Sb
Sb11 1.0000000000 0.6579162055 0.4997706139 0.8418544085  Biso 1.0 Sb
Sb12 1.0000000000 0.6579162055 0.8160617970 0.1581455915  Biso 1.0 Sb
Sb13 1.0000000000 0.5002293861 0.1581455915 0.3420837945  Biso 1.0 Sb
Sb14 1.0000000000 0.1839382030 0.8418544085 0.3420837945  Biso 1.0 Sb
Sb15 1.0000000000 0.8160617970 0.1581455915 0.6579162055  Biso 1.0 Sb
Sb16 1.0000000000 0.4997706139 0.8418544085 0.6579162055  Biso 1.0 Sb
Sr17 1.0000000000 0.0000000000 0.0000000000 0.0000000000  Biso 1.0 Sr
