# AFLOW.org Repositories
# P1Sn1   [BCT,BCT2,tI4] (STD_PRIM doi:10.
data_P1Sn1
_pd_phase_name P1Sn1
_cell_length_a  4.1492562383
_cell_length_b  4.1492562383
_cell_length_c  4.1492562383
_cell_angle_alpha  123.6858716089
_cell_angle_beta  123.6858716089
_cell_angle_gamma  83.7262727295
_symmetry_space_group_name_H-M  'P1'
_symmetry_Int_Tables_Number  1
loop_
_symmetry_equiv_pos_site_id
_symmetry_equiv_pos_as_xyz
  1  x,y,z
loop_
 _atom_site_label
 _atom_site_occupancy
 _atom_site_fract_x
 _atom_site_fract_y
 _atom_site_fract_z
 _atom_site_thermal_displace_type
 _atom_site_B_iso_or_equiv
 _atom_site_type_symbol
P1 1.0000000000 0.5707669737 0.5707669737 0.0000000000  Biso 1.0 P
Sn2 1.0000000000 0.0012330263 0.0012330263 0.0000000000  Biso 1.0 Sn
