# AFLOW.org Repositories
# P2Si1   [CUB,CUB,cP12] (STD_PRIM doi:10.
data_P2Si1
_pd_phase_name P2Si1
_cell_length_a  5.7401695143
_cell_length_b  5.7401695143
_cell_length_c  5.7401695143
_cell_angle_alpha  90.0000000000
_cell_angle_beta  90.0000000000
_cell_angle_gamma  90.0000000000
_symmetry_space_group_name_H-M  'P1'
_symmetry_Int_Tables_Number  1
loop_
_symmetry_equiv_pos_site_id
_symmetry_equiv_pos_as_xyz
  1  x,y,z
loop_
 _atom_site_label
 _atom_site_occupancy
 _atom_site_fract_x
 _atom_site_fract_y
 _atom_site_fract_z
 _atom_site_thermal_displace_type
 _atom_site_B_iso_or_equiv
 _atom_site_type_symbol
P1 1.0000000000 0.6089959635 0.6089959635 0.3910040365  Biso 1.0 P
P2 1.0000000000 0.8910040365 0.3910040365 0.8910040365  Biso 1.0 P
P3 1.0000000000 0.3910040365 0.1089959635 0.1089959635  Biso 1.0 P
P4 1.0000000000 0.1089959635 0.8910040365 0.6089959635  Biso 1.0 P
P5 1.0000000000 0.3910040365 0.3910040365 0.6089959635  Biso 1.0 P
P6 1.0000000000 0.1089959635 0.6089959635 0.1089959635  Biso 1.0 P
P7 1.0000000000 0.6089959635 0.8910040365 0.8910040365  Biso 1.0 P
P8 1.0000000000 0.8910040365 0.1089959635 0.3910040365  Biso 1.0 P
Si9 1.0000000000 0.0000000000 0.0000000000 0.0000000000  Biso 1.0 Si
Si10 1.0000000000 0.5000000000 0.0000000000 0.5000000000  Biso 1.0 Si
Si11 1.0000000000 0.0000000000 0.5000000000 0.5000000000  Biso 1.0 Si
Si12 1.0000000000 0.5000000000 0.5000000000 0.0000000000  Biso 1.0 Si
