# AFLOW.org Repositories
# P3Tc2   [TRI,TRI1b,aP20] (STD_PRIM doi:1
data_P3Tc2
_pd_phase_name P3Tc2
_cell_length_a  6.3088979465
_cell_length_b  6.3789428137
_cell_length_c  7.7392739238
_cell_angle_alpha  95.6898488307
_cell_angle_beta  101.7133961954
_cell_angle_gamma  104.2905168071
_symmetry_space_group_name_H-M  'P1'
_symmetry_Int_Tables_Number  1
loop_
_symmetry_equiv_pos_site_id
_symmetry_equiv_pos_as_xyz
  1  x,y,z
loop_
 _atom_site_label
 _atom_site_occupancy
 _atom_site_fract_x
 _atom_site_fract_y
 _atom_site_fract_z
 _atom_site_thermal_displace_type
 _atom_site_B_iso_or_equiv
 _atom_site_type_symbol
P1 1.0000000000 0.5366236727 0.1814515540 0.9619108701  Biso 1.0 P
P2 1.0000000000 0.4633763273 0.8185484460 0.0380891299  Biso 1.0 P
P3 1.0000000000 0.0331403491 0.1777258024 0.9569674917  Biso 1.0 P
P4 1.0000000000 0.9668596509 0.8222741976 0.0430325083  Biso 1.0 P
P5 1.0000000000 0.6288945941 0.8497304101 0.6769282509  Biso 1.0 P
P6 1.0000000000 0.3711054059 0.1502695899 0.3230717491  Biso 1.0 P
P7 1.0000000000 0.1389571135 0.8653407456 0.6807701209  Biso 1.0 P
P8 1.0000000000 0.8610428865 0.1346592544 0.3192298791  Biso 1.0 P
P9 1.0000000000 0.7657269653 0.4378893883 0.6203079948  Biso 1.0 P
P10 1.0000000000 0.2342730347 0.5621106117 0.3796920052  Biso 1.0 P
P11 1.0000000000 0.2635859269 0.4229690664 0.6362084804  Biso 1.0 P
P12 1.0000000000 0.7364140731 0.5770309336 0.3637915196  Biso 1.0 P
Tc13 1.0000000000 0.9228367577 0.1318945759 0.6318999031  Biso 1.0 Tc
Tc14 1.0000000000 0.0771632423 0.8681054241 0.3681000969  Biso 1.0 Tc
Tc15 1.0000000000 0.4622654400 0.1390013039 0.6379802924  Biso 1.0 Tc
Tc16 1.0000000000 0.5377345600 0.8609986961 0.3620197076  Biso 1.0 Tc
Tc17 1.0000000000 0.6190254358 0.5857744276 0.8592153418  Biso 1.0 Tc
Tc18 1.0000000000 0.3809745642 0.4142255724 0.1407846582  Biso 1.0 Tc
Tc19 1.0000000000 0.1017048116 0.5871440667 0.8544225900  Biso 1.0 Tc
Tc20 1.0000000000 0.8982951884 0.4128559333 0.1455774100  Biso 1.0 Tc
