# AFLOW.org Repositories
# P7Ru12Sc2   [HEX,HEX,hP21] (STD_PRIM doi
data_P7Ru12Sc2
_pd_phase_name P7Ru12Sc2
_cell_length_a  9.3358762830
_cell_length_b  9.3358762830
_cell_length_c  3.9083530548
_cell_angle_alpha  90.0000000000
_cell_angle_beta  90.0000000000
_cell_angle_gamma  120.0000000000
_symmetry_space_group_name_H-M  'P1'
_symmetry_Int_Tables_Number  1
loop_
_symmetry_equiv_pos_site_id
_symmetry_equiv_pos_as_xyz
  1  x,y,z
loop_
 _atom_site_label
 _atom_site_occupancy
 _atom_site_fract_x
 _atom_site_fract_y
 _atom_site_fract_z
 _atom_site_thermal_displace_type
 _atom_site_B_iso_or_equiv
 _atom_site_type_symbol
P1 1.0000000000 0.0000000000 0.0000000000 0.0000000000  Biso 1.0 P
P2 1.0000000000 0.6904757137 0.1159467928 0.0000000000  Biso 1.0 P
P3 1.0000000000 0.8840580572 0.5745339037 0.0000000000  Biso 1.0 P
P4 1.0000000000 0.4254694605 0.3095252500 0.0000000000  Biso 1.0 P
P5 1.0000000000 0.1191512349 0.4009505527 0.5000000000  Biso 1.0 P
P6 1.0000000000 0.5990488332 0.7181950539 0.5000000000  Biso 1.0 P
P7 1.0000000000 0.2818004731 0.8808450490 0.5000000000  Biso 1.0 P
Ru8 1.0000000000 0.6414758898 0.5727311136 0.0000000000  Biso 1.0 Ru
Ru9 1.0000000000 0.4272672297 0.0687437827 0.0000000000  Biso 1.0 Ru
Ru10 1.0000000000 0.9312498845 0.3585199331 0.0000000000  Biso 1.0 Ru
Ru11 1.0000000000 0.1636274937 0.2741804945 0.0000000000  Biso 1.0 Ru
Ru12 1.0000000000 0.7258213978 0.8894454120 0.0000000000  Biso 1.0 Ru
Ru13 1.0000000000 0.1105539425 0.8363725364 0.0000000000  Biso 1.0 Ru
Ru14 1.0000000000 0.5538294991 0.9471716375 0.5000000000  Biso 1.0 Ru
Ru15 1.0000000000 0.0528258591 0.6066546380 0.5000000000  Biso 1.0 Ru
Ru16 1.0000000000 0.3933466242 0.4461645127 0.5000000000  Biso 1.0 Ru
Ru17 1.0000000000 0.9138135939 0.1218158660 0.5000000000  Biso 1.0 Ru
Ru18 1.0000000000 0.8781836086 0.7919901586 0.5000000000  Biso 1.0 Ru
Ru19 1.0000000000 0.2080027124 0.0861853401 0.5000000000  Biso 1.0 Ru
Sc20 1.0000000000 0.3333424810 0.6666763373 0.0000000000  Biso 1.0 Sc
Sc21 1.0000000000 0.6666572379 0.3333483969 0.5000000000  Biso 1.0 Sc
