# AFLOW.org Repositories
# Pb1S1   [ORC,ORC,oP8] (STD_PRIM doi:10.1
data_Pb1S1
_pd_phase_name Pb1S1
_cell_length_a  4.2471323393
_cell_length_b  6.0015737245
_cell_length_c  8.4823293403
_cell_angle_alpha  90.0000000000
_cell_angle_beta  90.0000000000
_cell_angle_gamma  90.0000000000
_symmetry_space_group_name_H-M  'P1'
_symmetry_Int_Tables_Number  1
loop_
_symmetry_equiv_pos_site_id
_symmetry_equiv_pos_as_xyz
  1  x,y,z
loop_
 _atom_site_label
 _atom_site_occupancy
 _atom_site_fract_x
 _atom_site_fract_y
 _atom_site_fract_z
 _atom_site_thermal_displace_type
 _atom_site_B_iso_or_equiv
 _atom_site_type_symbol
Pb1 1.0000000000 0.2500000000 0.2504166101 0.6249516554  Biso 1.0 Pb
Pb2 1.0000000000 0.7500000000 0.7504166101 0.8750483446  Biso 1.0 Pb
Pb3 1.0000000000 0.7500000000 0.7495833899 0.3750483446  Biso 1.0 Pb
Pb4 1.0000000000 0.2500000000 0.2495833899 0.1249516554  Biso 1.0 Pb
S5 1.0000000000 0.7500000000 0.2487311289 0.3731008991  Biso 1.0 S
S6 1.0000000000 0.2500000000 0.7487311289 0.1268991009  Biso 1.0 S
S7 1.0000000000 0.2500000000 0.7512688711 0.6268991009  Biso 1.0 S
S8 1.0000000000 0.7500000000 0.2512688711 0.8731008991  Biso 1.0 S
