# AFLOW.org Repositories
# Pd1Sn1   [ORC,ORC,oP8] (STD_PRIM doi:10.
data_Pd1Sn1
_pd_phase_name Pd1Sn1
_cell_length_a  3.3438606129
_cell_length_b  6.6526075571
_cell_length_c  7.3832008508
_cell_angle_alpha  90.0000000000
_cell_angle_beta  90.0000000000
_cell_angle_gamma  90.0000000000
_symmetry_space_group_name_H-M  'P1'
_symmetry_Int_Tables_Number  1
loop_
_symmetry_equiv_pos_site_id
_symmetry_equiv_pos_as_xyz
  1  x,y,z
loop_
 _atom_site_label
 _atom_site_occupancy
 _atom_site_fract_x
 _atom_site_fract_y
 _atom_site_fract_z
 _atom_site_thermal_displace_type
 _atom_site_B_iso_or_equiv
 _atom_site_type_symbol
Pd1 1.0000000000 0.2500000000 0.1781165464 0.0464008018  Biso 1.0 Pd
Pd2 1.0000000000 0.7500000000 0.3218834536 0.5464008018  Biso 1.0 Pd
Pd3 1.0000000000 0.7500000000 0.8218834536 0.9535991982  Biso 1.0 Pd
Pd4 1.0000000000 0.2500000000 0.6781165464 0.4535991982  Biso 1.0 Pd
Sn5 1.0000000000 0.2500000000 0.5204170859 0.8052048680  Biso 1.0 Sn
Sn6 1.0000000000 0.7500000000 0.9795829141 0.3052048680  Biso 1.0 Sn
Sn7 1.0000000000 0.7500000000 0.4795829141 0.1947951320  Biso 1.0 Sn
Sn8 1.0000000000 0.2500000000 0.0204170859 0.6947951320  Biso 1.0 Sn
