# AFLOW.org Repositories
# Pd1S1Sb1   [CUB,CUB,cP12] (STD_PRIM doi:
data_Pd1S1Sb1
_pd_phase_name Pd1S1Sb1
_cell_length_a  6.2628988610
_cell_length_b  6.2628988610
_cell_length_c  6.2628988610
_cell_angle_alpha  90.0000000000
_cell_angle_beta  90.0000000000
_cell_angle_gamma  90.0000000000
_symmetry_space_group_name_H-M  'P1'
_symmetry_Int_Tables_Number  1
loop_
_symmetry_equiv_pos_site_id
_symmetry_equiv_pos_as_xyz
  1  x,y,z
loop_
 _atom_site_label
 _atom_site_occupancy
 _atom_site_fract_x
 _atom_site_fract_y
 _atom_site_fract_z
 _atom_site_thermal_displace_type
 _atom_site_B_iso_or_equiv
 _atom_site_type_symbol
Pd1 1.0000000000 0.9894503265 0.9894503265 0.0105496735  Biso 1.0 Pd
Pd2 1.0000000000 0.5105496735 0.0105496735 0.5105496735  Biso 1.0 Pd
Pd3 1.0000000000 0.0105496735 0.4894503265 0.4894503265  Biso 1.0 Pd
Pd4 1.0000000000 0.4894503265 0.5105496735 0.9894503265  Biso 1.0 Pd
S5 1.0000000000 0.3891485966 0.3891485966 0.6108514034  Biso 1.0 S
S6 1.0000000000 0.1108514034 0.6108514034 0.1108514034  Biso 1.0 S
S7 1.0000000000 0.6108514034 0.8891485966 0.8891485966  Biso 1.0 S
S8 1.0000000000 0.8891485966 0.1108514034 0.3891485966  Biso 1.0 S
Sb9 1.0000000000 0.6207598616 0.6207598616 0.3792401384  Biso 1.0 Sb
Sb10 1.0000000000 0.8792401384 0.3792401384 0.8792401384  Biso 1.0 Sb
Sb11 1.0000000000 0.3792401384 0.1207598616 0.1207598616  Biso 1.0 Sb
Sb12 1.0000000000 0.1207598616 0.8792401384 0.6207598616  Biso 1.0 Sb
