# AFLOW.org Repositories
# Pd2Si3Y3   [ORCC,ORCC,oS32] (STD_PRIM do
data_Pd2Si3Y3
_pd_phase_name Pd2Si3Y3
_cell_length_a  5.6522095535
_cell_length_b  5.6522095535
_cell_length_c  14.1704483749
_cell_angle_alpha  90.0000000000
_cell_angle_beta  90.0000000000
_cell_angle_gamma  135.8239281878
_symmetry_space_group_name_H-M  'P1'
_symmetry_Int_Tables_Number  1
loop_
_symmetry_equiv_pos_site_id
_symmetry_equiv_pos_as_xyz
  1  x,y,z
loop_
 _atom_site_label
 _atom_site_occupancy
 _atom_site_fract_x
 _atom_site_fract_y
 _atom_site_fract_z
 _atom_site_thermal_displace_type
 _atom_site_B_iso_or_equiv
 _atom_site_type_symbol
Pd1 1.0000000000 0.7044794564 0.2955205436 0.9057350503  Biso 1.0 Pd
Pd2 1.0000000000 0.2955205436 0.7044794564 0.4057350503  Biso 1.0 Pd
Pd3 1.0000000000 0.7044794564 0.2955205436 0.5942649497  Biso 1.0 Pd
Pd4 1.0000000000 0.2955205436 0.7044794564 0.0942649497  Biso 1.0 Pd
Si5 1.0000000000 0.1039718584 0.8960281416 0.9602207232  Biso 1.0 Si
Si6 1.0000000000 0.8960281416 0.1039718584 0.4602207232  Biso 1.0 Si
Si7 1.0000000000 0.1039718584 0.8960281416 0.5397792768  Biso 1.0 Si
Si8 1.0000000000 0.8960281416 0.1039718584 0.0397792768  Biso 1.0 Si
Si9 1.0000000000 0.8389289848 0.1610710152 0.7500000000  Biso 1.0 Si
Si10 1.0000000000 0.1610710152 0.8389289848 0.2500000000  Biso 1.0 Si
Y11 1.0000000000 0.4116868911 0.5883131089 0.8894239993  Biso 1.0 Y
Y12 1.0000000000 0.5883131089 0.4116868911 0.3894239993  Biso 1.0 Y
Y13 1.0000000000 0.4116868911 0.5883131089 0.6105760007  Biso 1.0 Y
Y14 1.0000000000 0.5883131089 0.4116868911 0.1105760007  Biso 1.0 Y
Y15 1.0000000000 0.1335153907 0.8664846093 0.7500000000  Biso 1.0 Y
Y16 1.0000000000 0.8664846093 0.1335153907 0.2500000000  Biso 1.0 Y
