# AFLOW.org Repositories
# Pd3Tl1   [BCT,BCT2,tI16] (STD_PRIM doi:1
data_Pd3Tl1
_pd_phase_name Pd3Tl1
_cell_length_a  8.2888786505
_cell_length_b  8.2888786505
_cell_length_c  8.2888786505
_cell_angle_alpha  150.8764803035
_cell_angle_beta  150.8764803035
_cell_angle_gamma  41.6563276641
_symmetry_space_group_name_H-M  'P1'
_symmetry_Int_Tables_Number  1
loop_
_symmetry_equiv_pos_site_id
_symmetry_equiv_pos_as_xyz
  1  x,y,z
loop_
 _atom_site_label
 _atom_site_occupancy
 _atom_site_fract_x
 _atom_site_fract_y
 _atom_site_fract_z
 _atom_site_thermal_displace_type
 _atom_site_B_iso_or_equiv
 _atom_site_type_symbol
Pd1 1.0000000000 0.0000000000 0.5000000000 0.5000000000  Biso 1.0 Pd
Pd2 1.0000000000 0.5000000000 0.0000000000 0.5000000000  Biso 1.0 Pd
Pd3 1.0000000000 0.7500000000 0.2500000000 0.5000000000  Biso 1.0 Pd
Pd4 1.0000000000 0.2500000000 0.7500000000 0.5000000000  Biso 1.0 Pd
Pd5 1.0000000000 0.6254084822 0.6254084822 0.0000000000  Biso 1.0 Pd
Pd6 1.0000000000 0.3745915178 0.3745915178 0.0000000000  Biso 1.0 Pd
Tl7 1.0000000000 0.8743209365 0.8743209365 0.0000000000  Biso 1.0 Tl
Tl8 1.0000000000 0.1256790635 0.1256790635 0.0000000000  Biso 1.0 Tl
