# AFLOW.org Repositories
# Pt1Sb1Se1   [CUB,CUB,cP12] (STD_PRIM doi
data_Pt1Sb1Se1
_pd_phase_name Pt1Sb1Se1
_cell_length_a  6.4052788148
_cell_length_b  6.4052788148
_cell_length_c  6.4052788148
_cell_angle_alpha  90.0000000000
_cell_angle_beta  90.0000000000
_cell_angle_gamma  90.0000000000
_symmetry_space_group_name_H-M  'P1'
_symmetry_Int_Tables_Number  1
loop_
_symmetry_equiv_pos_site_id
_symmetry_equiv_pos_as_xyz
  1  x,y,z
loop_
 _atom_site_label
 _atom_site_occupancy
 _atom_site_fract_x
 _atom_site_fract_y
 _atom_site_fract_z
 _atom_site_thermal_displace_type
 _atom_site_B_iso_or_equiv
 _atom_site_type_symbol
Pt1 1.0000000000 0.0000000000 0.0000000000 0.0000000000  Biso 1.0 Pt
Pt2 1.0000000000 0.4990505414 0.0000000000 0.4990505414  Biso 1.0 Pt
Pt3 1.0000000000 0.0000000000 0.5009494586 0.5009494586  Biso 1.0 Pt
Pt4 1.0000000000 0.5009494586 0.4990505414 0.0000000000  Biso 1.0 Pt
Sb5 1.0000000000 0.3755738223 0.3755738223 0.6244261777  Biso 1.0 Sb
Sb6 1.0000000000 0.1244261777 0.6244261777 0.1244261777  Biso 1.0 Sb
Sb7 1.0000000000 0.6244261777 0.8755738223 0.8755738223  Biso 1.0 Sb
Sb8 1.0000000000 0.8755738223 0.1244261777 0.3755738223  Biso 1.0 Sb
Se9 1.0000000000 0.6190177692 0.6190177692 0.3809822308  Biso 1.0 Se
Se10 1.0000000000 0.8809822308 0.3809822308 0.8809822308  Biso 1.0 Se
Se11 1.0000000000 0.3809822308 0.1190177692 0.1190177692  Biso 1.0 Se
Se12 1.0000000000 0.1190177692 0.8809822308 0.6190177692  Biso 1.0 Se
