# AFLOW.org Repositories
# Pt1Sn1Sr1   [ORC,ORC,oP12] (STD_PRIM doi
data_Pt1Sn1Sr1
_pd_phase_name Pt1Sn1Sr1
_cell_length_a  4.7849000024
_cell_length_b  7.6822191718
_cell_length_c  8.1663297759
_cell_angle_alpha  90.0000000000
_cell_angle_beta  90.0000000000
_cell_angle_gamma  90.0000000000
_symmetry_space_group_name_H-M  'P1'
_symmetry_Int_Tables_Number  1
loop_
_symmetry_equiv_pos_site_id
_symmetry_equiv_pos_as_xyz
  1  x,y,z
loop_
 _atom_site_label
 _atom_site_occupancy
 _atom_site_fract_x
 _atom_site_fract_y
 _atom_site_fract_z
 _atom_site_thermal_displace_type
 _atom_site_B_iso_or_equiv
 _atom_site_type_symbol
Pt1 1.0000000000 0.2500000000 0.2950188129 0.6067304831  Biso 1.0 Pt
Pt2 1.0000000000 0.7500000000 0.2049811871 0.1067304831  Biso 1.0 Pt
Pt3 1.0000000000 0.7500000000 0.7049811871 0.3932695169  Biso 1.0 Pt
Pt4 1.0000000000 0.2500000000 0.7950188129 0.8932695169  Biso 1.0 Pt
Sn5 1.0000000000 0.2500000000 0.1620315284 0.9257944646  Biso 1.0 Sn
Sn6 1.0000000000 0.7500000000 0.3379684716 0.4257944646  Biso 1.0 Sn
Sn7 1.0000000000 0.7500000000 0.8379684716 0.0742055354  Biso 1.0 Sn
Sn8 1.0000000000 0.2500000000 0.6620315284 0.5742055354  Biso 1.0 Sn
Sr9 1.0000000000 0.2500000000 0.0234168833 0.3166353546  Biso 1.0 Sr
Sr10 1.0000000000 0.7500000000 0.4765831167 0.8166353546  Biso 1.0 Sr
Sr11 1.0000000000 0.7500000000 0.9765831167 0.6833646454  Biso 1.0 Sr
Sr12 1.0000000000 0.2500000000 0.5234168833 0.1833646454  Biso 1.0 Sr
