# AFLOW.org Repositories
# Pt1Sc1Sn1   [HEX,HEX,hP18] (STD_PRIM doi
data_Pt1Sc1Sn1
_pd_phase_name Pt1Sc1Sn1
_cell_length_a  7.5343289460
_cell_length_b  7.5343289460
_cell_length_c  7.4301541533
_cell_angle_alpha  90.0000000000
_cell_angle_beta  90.0000000000
_cell_angle_gamma  120.0000000000
_symmetry_space_group_name_H-M  'P1'
_symmetry_Int_Tables_Number  1
loop_
_symmetry_equiv_pos_site_id
_symmetry_equiv_pos_as_xyz
  1  x,y,z
loop_
 _atom_site_label
 _atom_site_occupancy
 _atom_site_fract_x
 _atom_site_fract_y
 _atom_site_fract_z
 _atom_site_thermal_displace_type
 _atom_site_B_iso_or_equiv
 _atom_site_type_symbol
Pt1 1.0000000000 0.6666914174 0.3333830020 0.0363175195  Biso 1.0 Pt
Pt2 1.0000000000 0.6666914174 0.3333830020 0.4636824805  Biso 1.0 Pt
Pt3 1.0000000000 0.3333084154 0.6666169980 0.9636824805  Biso 1.0 Pt
Pt4 1.0000000000 0.3333084154 0.6666169980 0.5363175195  Biso 1.0 Pt
Pt5 1.0000000000 0.0000000000 0.0000000000 0.2500000000  Biso 1.0 Pt
Pt6 1.0000000000 0.0000000000 0.0000000000 0.7500000000  Biso 1.0 Pt
Sc7 1.0000000000 0.0177164293 0.6129766270 0.2500000000  Biso 1.0 Sc
Sc8 1.0000000000 0.3870259306 0.4047374308 0.2500000000  Biso 1.0 Sc
Sc9 1.0000000000 0.5952624029 0.9822952406 0.2500000000  Biso 1.0 Sc
Sc10 1.0000000000 0.4047398023 0.3870233730 0.7500000000  Biso 1.0 Sc
Sc11 1.0000000000 0.9822884998 0.5952625692 0.7500000000  Biso 1.0 Sc
Sc12 1.0000000000 0.6129671623 0.0177047594 0.7500000000  Biso 1.0 Sc
Sn13 1.0000000000 0.0000000000 0.2724840125 0.0000000000  Biso 1.0 Sn
Sn14 1.0000000000 0.7275013145 0.7275159875 0.0000000000  Biso 1.0 Sn
Sn15 1.0000000000 0.2725112557 0.0000000000 0.0000000000  Biso 1.0 Sn
Sn16 1.0000000000 0.0000000000 0.2724840125 0.5000005839  Biso 1.0 Sn
Sn17 1.0000000000 0.7275013145 0.7275159875 0.4999994161  Biso 1.0 Sn
Sn18 1.0000000000 0.2725112557 0.0000000000 0.5000000000  Biso 1.0 Sn
