# AFLOW.org Repositories
# Pt1U1   [ORCC,ORCC,oS8] (STD_PRIM doi:10
data_Pt1U1
_pd_phase_name Pt1U1
_cell_length_a  5.8053947333
_cell_length_b  5.8053947333
_cell_length_c  4.5060446167
_cell_angle_alpha  90.0000000000
_cell_angle_beta  90.0000000000
_cell_angle_gamma  140.2017241655
_symmetry_space_group_name_H-M  'P1'
_symmetry_Int_Tables_Number  1
loop_
_symmetry_equiv_pos_site_id
_symmetry_equiv_pos_as_xyz
  1  x,y,z
loop_
 _atom_site_label
 _atom_site_occupancy
 _atom_site_fract_x
 _atom_site_fract_y
 _atom_site_fract_z
 _atom_site_thermal_displace_type
 _atom_site_B_iso_or_equiv
 _atom_site_type_symbol
Pt1 1.0000000000 0.5920757528 0.4079242472 0.2500000000  Biso 1.0 Pt
Pt2 1.0000000000 0.4079242472 0.5920757528 0.7500000000  Biso 1.0 Pt
U3 1.0000000000 0.8660647683 0.1339352317 0.2500000000  Biso 1.0 U
U4 1.0000000000 0.1339352317 0.8660647683 0.7500000000  Biso 1.0 U
