# AFLOW.org Repositories
# Re2Zr1   [HEX,HEX,hP12] (STD_PRIM doi:10
data_Re2Zr1
_pd_phase_name Re2Zr1
_cell_length_a  5.3139278656
_cell_length_b  5.3139278656
_cell_length_c  8.7117825486
_cell_angle_alpha  90.0000000000
_cell_angle_beta  90.0000000000
_cell_angle_gamma  120.0000000000
_symmetry_space_group_name_H-M  'P1'
_symmetry_Int_Tables_Number  1
loop_
_symmetry_equiv_pos_site_id
_symmetry_equiv_pos_as_xyz
  1  x,y,z
loop_
 _atom_site_label
 _atom_site_occupancy
 _atom_site_fract_x
 _atom_site_fract_y
 _atom_site_fract_z
 _atom_site_thermal_displace_type
 _atom_site_B_iso_or_equiv
 _atom_site_type_symbol
Re1 1.0000000000 0.0000000000 0.0000000000 0.0000000000  Biso 1.0 Re
Re2 1.0000000000 0.0000000000 0.0000000000 0.5000000000  Biso 1.0 Re
Re3 1.0000000000 0.8287006006 0.1713239036 0.2500000000  Biso 1.0 Re
Re4 1.0000000000 0.8287006006 0.6573766969 0.2500000000  Biso 1.0 Re
Re5 1.0000000000 0.3426189151 0.1713094576 0.2500000000  Biso 1.0 Re
Re6 1.0000000000 0.1712993994 0.8286760964 0.7500000000  Biso 1.0 Re
Re7 1.0000000000 0.1712993994 0.3426233031 0.7500000000  Biso 1.0 Re
Re8 1.0000000000 0.6573810849 0.8286905424 0.7500000000  Biso 1.0 Re
Zr9 1.0000000000 0.3333669357 0.6666834678 0.0621126838  Biso 1.0 Zr
Zr10 1.0000000000 0.6666330643 0.3333165322 0.5621126838  Biso 1.0 Zr
Zr11 1.0000000000 0.6666330643 0.3333165322 0.9378873162  Biso 1.0 Zr
Zr12 1.0000000000 0.3333669357 0.6666834678 0.4378873162  Biso 1.0 Zr
