# AFLOW.org Repositories
# Rh1Te2   [CUB,CUB,cP12] (STD_PRIM doi:10
data_Rh1Te2
_pd_phase_name Rh1Te2
_cell_length_a  6.5196023473
_cell_length_b  6.5196023473
_cell_length_c  6.5196023473
_cell_angle_alpha  90.0000000000
_cell_angle_beta  90.0000000000
_cell_angle_gamma  90.0000000000
_symmetry_space_group_name_H-M  'P1'
_symmetry_Int_Tables_Number  1
loop_
_symmetry_equiv_pos_site_id
_symmetry_equiv_pos_as_xyz
  1  x,y,z
loop_
 _atom_site_label
 _atom_site_occupancy
 _atom_site_fract_x
 _atom_site_fract_y
 _atom_site_fract_z
 _atom_site_thermal_displace_type
 _atom_site_B_iso_or_equiv
 _atom_site_type_symbol
Rh1 1.0000000000 0.0000000000 0.0000000000 0.0000000000  Biso 1.0 Rh
Rh2 1.0000000000 0.5000000000 0.0000000000 0.5000000000  Biso 1.0 Rh
Rh3 1.0000000000 0.0000000000 0.5000000000 0.5000000000  Biso 1.0 Rh
Rh4 1.0000000000 0.5000000000 0.5000000000 0.0000000000  Biso 1.0 Rh
Te5 1.0000000000 0.6314972190 0.6314972190 0.3685027810  Biso 1.0 Te
Te6 1.0000000000 0.8685027810 0.3685027810 0.8685027810  Biso 1.0 Te
Te7 1.0000000000 0.3685027810 0.1314972190 0.1314972190  Biso 1.0 Te
Te8 1.0000000000 0.1314972190 0.8685027810 0.6314972190  Biso 1.0 Te
Te9 1.0000000000 0.3685027810 0.3685027810 0.6314972190  Biso 1.0 Te
Te10 1.0000000000 0.1314972190 0.6314972190 0.1314972190  Biso 1.0 Te
Te11 1.0000000000 0.6314972190 0.8685027810 0.8685027810  Biso 1.0 Te
Te12 1.0000000000 0.8685027810 0.1314972190 0.3685027810  Biso 1.0 Te
