# AFLOW.org Repositories
# Ru1Si1   [CUB,CUB,cP8] (STD_PRIM doi:10.
data_Ru1Si1
_pd_phase_name Ru1Si1
_cell_length_a  4.7208209777
_cell_length_b  4.7208209777
_cell_length_c  4.7208209777
_cell_angle_alpha  90.0000000000
_cell_angle_beta  90.0000000000
_cell_angle_gamma  90.0000000000
_symmetry_space_group_name_H-M  'P1'
_symmetry_Int_Tables_Number  1
loop_
_symmetry_equiv_pos_site_id
_symmetry_equiv_pos_as_xyz
  1  x,y,z
loop_
 _atom_site_label
 _atom_site_occupancy
 _atom_site_fract_x
 _atom_site_fract_y
 _atom_site_fract_z
 _atom_site_thermal_displace_type
 _atom_site_B_iso_or_equiv
 _atom_site_type_symbol
Ru1 1.0000000000 0.8703108761 0.8703108761 0.1296891239  Biso 1.0 Ru
Ru2 1.0000000000 0.6296891239 0.1296891239 0.6296891239  Biso 1.0 Ru
Ru3 1.0000000000 0.1296891239 0.3703108761 0.3703108761  Biso 1.0 Ru
Ru4 1.0000000000 0.3703108761 0.6296891239 0.8703108761  Biso 1.0 Ru
Si5 1.0000000000 0.1620295738 0.1620295738 0.8379704262  Biso 1.0 Si
Si6 1.0000000000 0.3379704262 0.8379704262 0.3379704262  Biso 1.0 Si
Si7 1.0000000000 0.8379704262 0.6620295738 0.6620295738  Biso 1.0 Si
Si8 1.0000000000 0.6620295738 0.3379704262 0.1620295738  Biso 1.0 Si
