# AFLOW.org Repositories
# Ru1S2   [CUB,CUB,cP12] (STD_PRIM doi:10.
data_Ru1S2
_pd_phase_name Ru1S2
_cell_length_a  5.6783129520
_cell_length_b  5.6783129520
_cell_length_c  5.6783129520
_cell_angle_alpha  90.0000000000
_cell_angle_beta  90.0000000000
_cell_angle_gamma  90.0000000000
_symmetry_space_group_name_H-M  'P1'
_symmetry_Int_Tables_Number  1
loop_
_symmetry_equiv_pos_site_id
_symmetry_equiv_pos_as_xyz
  1  x,y,z
loop_
 _atom_site_label
 _atom_site_occupancy
 _atom_site_fract_x
 _atom_site_fract_y
 _atom_site_fract_z
 _atom_site_thermal_displace_type
 _atom_site_B_iso_or_equiv
 _atom_site_type_symbol
Ru1 1.0000000000 0.0000000000 0.0000000000 0.0000000000  Biso 1.0 Ru
Ru2 1.0000000000 0.5000000000 0.0000000000 0.5000000000  Biso 1.0 Ru
Ru3 1.0000000000 0.0000000000 0.5000000000 0.5000000000  Biso 1.0 Ru
Ru4 1.0000000000 0.5000000000 0.5000000000 0.0000000000  Biso 1.0 Ru
S5 1.0000000000 0.6101006856 0.6101006856 0.3898993144  Biso 1.0 S
S6 1.0000000000 0.8898993144 0.3898993144 0.8898993144  Biso 1.0 S
S7 1.0000000000 0.3898993144 0.1101006856 0.1101006856  Biso 1.0 S
S8 1.0000000000 0.1101006856 0.8898993144 0.6101006856  Biso 1.0 S
S9 1.0000000000 0.3898993144 0.3898993144 0.6101006856  Biso 1.0 S
S10 1.0000000000 0.1101006856 0.6101006856 0.1101006856  Biso 1.0 S
S11 1.0000000000 0.6101006856 0.8898993144 0.8898993144  Biso 1.0 S
S12 1.0000000000 0.8898993144 0.1101006856 0.3898993144  Biso 1.0 S
