# AFLOW.org Repositories
# Ru1Th1   [ORCC,ORCC,oS8] (STD_PRIM doi:1
data_Ru1Th1
_pd_phase_name Ru1Th1
_cell_length_a  6.0990198834
_cell_length_b  6.0990198834
_cell_length_c  4.2080946310
_cell_angle_alpha  90.0000000000
_cell_angle_beta  90.0000000000
_cell_angle_gamma  141.4525027105
_symmetry_space_group_name_H-M  'P1'
_symmetry_Int_Tables_Number  1
loop_
_symmetry_equiv_pos_site_id
_symmetry_equiv_pos_as_xyz
  1  x,y,z
loop_
 _atom_site_label
 _atom_site_occupancy
 _atom_site_fract_x
 _atom_site_fract_y
 _atom_site_fract_z
 _atom_site_thermal_displace_type
 _atom_site_B_iso_or_equiv
 _atom_site_type_symbol
Ru1 1.0000000000 0.5860485041 0.4139514959 0.7500000000  Biso 1.0 Ru
Ru2 1.0000000000 0.4139514959 0.5860485041 0.2500000000  Biso 1.0 Ru
Th3 1.0000000000 0.8591579396 0.1408420604 0.7500000000  Biso 1.0 Th
Th4 1.0000000000 0.1408420604 0.8591579396 0.2500000000  Biso 1.0 Th
