# AFLOW.org Repositories
# Ru4Sb12Sr1   [BCC,BCC,cI34] (STD_PRIM do
data_Ru4Sb12Sr1
_pd_phase_name Ru4Sb12Sr1
_cell_length_a  8.1379474068
_cell_length_b  8.1379474068
_cell_length_c  8.1379474068
_cell_angle_alpha  109.4712206345
_cell_angle_beta  109.4712206345
_cell_angle_gamma  109.4712206345
_symmetry_space_group_name_H-M  'P1'
_symmetry_Int_Tables_Number  1
loop_
_symmetry_equiv_pos_site_id
_symmetry_equiv_pos_as_xyz
  1  x,y,z
loop_
 _atom_site_label
 _atom_site_occupancy
 _atom_site_fract_x
 _atom_site_fract_y
 _atom_site_fract_z
 _atom_site_thermal_displace_type
 _atom_site_B_iso_or_equiv
 _atom_site_type_symbol
Ru1 1.0000000000 0.5000000000 0.5000000000 0.5000000000  Biso 1.0 Ru
Ru2 1.0000000000 0.0000000000 0.0000000000 0.5000000000  Biso 1.0 Ru
Ru3 1.0000000000 0.0000000000 0.5000000000 0.0000000000  Biso 1.0 Ru
Ru4 1.0000000000 0.5000000000 0.0000000000 0.0000000000  Biso 1.0 Ru
Sb5 1.0000000000 0.3431397746 0.1591391438 0.5022789184  Biso 1.0 Sb
Sb6 1.0000000000 0.6568602254 0.8408608562 0.4977210816  Biso 1.0 Sb
Sb7 1.0000000000 0.3431397746 0.8408608562 0.1840006307  Biso 1.0 Sb
Sb8 1.0000000000 0.6568602254 0.1591391438 0.8159993693  Biso 1.0 Sb
Sb9 1.0000000000 0.5022789184 0.3431397746 0.1591391438  Biso 1.0 Sb
Sb10 1.0000000000 0.4977210816 0.6568602254 0.8408608562  Biso 1.0 Sb
Sb11 1.0000000000 0.1840006307 0.3431397746 0.8408608562  Biso 1.0 Sb
Sb12 1.0000000000 0.8159993693 0.6568602254 0.1591391438  Biso 1.0 Sb
Sb13 1.0000000000 0.1591391438 0.5022789184 0.3431397746  Biso 1.0 Sb
Sb14 1.0000000000 0.8408608562 0.4977210816 0.6568602254  Biso 1.0 Sb
Sb15 1.0000000000 0.8408608562 0.1840006307 0.3431397746  Biso 1.0 Sb
Sb16 1.0000000000 0.1591391438 0.8159993693 0.6568602254  Biso 1.0 Sb
Sr17 1.0000000000 0.0000000000 0.0000000000 0.0000000000  Biso 1.0 Sr
