# AFLOW.org Repositories
# S2Ti1   [CUB,CUB,cP12] (STD_PRIM doi:10.
data_S2Ti1
_pd_phase_name S2Ti1
_cell_length_a  6.0715130796
_cell_length_b  6.0715130796
_cell_length_c  6.0715130796
_cell_angle_alpha  90.0000000000
_cell_angle_beta  90.0000000000
_cell_angle_gamma  90.0000000000
_symmetry_space_group_name_H-M  'P1'
_symmetry_Int_Tables_Number  1
loop_
_symmetry_equiv_pos_site_id
_symmetry_equiv_pos_as_xyz
  1  x,y,z
loop_
 _atom_site_label
 _atom_site_occupancy
 _atom_site_fract_x
 _atom_site_fract_y
 _atom_site_fract_z
 _atom_site_thermal_displace_type
 _atom_site_B_iso_or_equiv
 _atom_site_type_symbol
S1 1.0000000000 0.6480759864 0.6480759864 0.3519240136  Biso 1.0 S
S2 1.0000000000 0.8519240136 0.3519240136 0.8519240136  Biso 1.0 S
S3 1.0000000000 0.3519240136 0.1480759864 0.1480759864  Biso 1.0 S
S4 1.0000000000 0.1480759864 0.8519240136 0.6480759864  Biso 1.0 S
S5 1.0000000000 0.3519240136 0.3519240136 0.6480759864  Biso 1.0 S
S6 1.0000000000 0.1480759864 0.6480759864 0.1480759864  Biso 1.0 S
S7 1.0000000000 0.6480759864 0.8519240136 0.8519240136  Biso 1.0 S
S8 1.0000000000 0.8519240136 0.1480759864 0.3519240136  Biso 1.0 S
Ti9 1.0000000000 0.0000000000 0.0000000000 0.0000000000  Biso 1.0 Ti
Ti10 1.0000000000 0.5000000000 0.0000000000 0.5000000000  Biso 1.0 Ti
Ti11 1.0000000000 0.0000000000 0.5000000000 0.5000000000  Biso 1.0 Ti
Ti12 1.0000000000 0.5000000000 0.5000000000 0.0000000000  Biso 1.0 Ti
