# AFLOW.org Repositories
# S4Sc2Zn1   [FCC,FCC,cF56] (STD_PRIM doi:
data_S4Sc2Zn1
_pd_phase_name S4Sc2Zn1
_cell_length_a  7.4911447200
_cell_length_b  7.4911447200
_cell_length_c  7.4911447200
_cell_angle_alpha  60.0000000000
_cell_angle_beta  60.0000000000
_cell_angle_gamma  60.0000000000
_symmetry_space_group_name_H-M  'P1'
_symmetry_Int_Tables_Number  1
loop_
_symmetry_equiv_pos_site_id
_symmetry_equiv_pos_as_xyz
  1  x,y,z
loop_
 _atom_site_label
 _atom_site_occupancy
 _atom_site_fract_x
 _atom_site_fract_y
 _atom_site_fract_z
 _atom_site_thermal_displace_type
 _atom_site_B_iso_or_equiv
 _atom_site_type_symbol
S1 1.0000000000 0.7535839286 0.7392482143 0.7535839286  Biso 1.0 S
S2 1.0000000000 0.2392482143 0.2535839286 0.7535839286  Biso 1.0 S
S3 1.0000000000 0.7535839286 0.2535839286 0.2392482143  Biso 1.0 S
S4 1.0000000000 0.7535839286 0.2535839286 0.7535839286  Biso 1.0 S
S5 1.0000000000 0.7607517857 0.7464160714 0.2464160714  Biso 1.0 S
S6 1.0000000000 0.2464160714 0.2607517857 0.2464160714  Biso 1.0 S
S7 1.0000000000 0.2464160714 0.7464160714 0.7607517857  Biso 1.0 S
S8 1.0000000000 0.2464160714 0.7464160714 0.2464160714  Biso 1.0 S
Sc9 1.0000000000 0.0000000000 0.0000000000 0.0000000000  Biso 1.0 Sc
Sc10 1.0000000000 0.5000000000 0.5000000000 0.0000000000  Biso 1.0 Sc
Sc11 1.0000000000 0.0000000000 0.5000000000 0.5000000000  Biso 1.0 Sc
Sc12 1.0000000000 0.0000000000 0.5000000000 0.0000000000  Biso 1.0 Sc
Zn13 1.0000000000 0.6250000000 0.1250000000 0.6250000000  Biso 1.0 Zn
Zn14 1.0000000000 0.3750000000 0.8750000000 0.3750000000  Biso 1.0 Zn
