# AFLOW.org Repositories
# Sb1Se3Tl3   [CUB,CUB,cP28] (STD_PRIM doi
data_Sb1Se3Tl3
_pd_phase_name Sb1Se3Tl3
_cell_length_a  9.6684274862
_cell_length_b  9.6684274862
_cell_length_c  9.6684274862
_cell_angle_alpha  90.0000000000
_cell_angle_beta  90.0000000000
_cell_angle_gamma  90.0000000000
_symmetry_space_group_name_H-M  'P1'
_symmetry_Int_Tables_Number  1
loop_
_symmetry_equiv_pos_site_id
_symmetry_equiv_pos_as_xyz
  1  x,y,z
loop_
 _atom_site_label
 _atom_site_occupancy
 _atom_site_fract_x
 _atom_site_fract_y
 _atom_site_fract_z
 _atom_site_thermal_displace_type
 _atom_site_B_iso_or_equiv
 _atom_site_type_symbol
Sb1 1.0000000000 0.2003405955 0.2003405955 0.7996594045  Biso 1.0 Sb
Sb2 1.0000000000 0.2996594045 0.7996594045 0.2996594045  Biso 1.0 Sb
Sb3 1.0000000000 0.7996594045 0.7003405955 0.7003405955  Biso 1.0 Sb
Sb4 1.0000000000 0.7003405955 0.2996594045 0.2003405955  Biso 1.0 Sb
Se5 1.0000000000 0.3888410041 0.5497670889 0.2435849653  Biso 1.0 Se
Se6 1.0000000000 0.1111589959 0.4502329111 0.7435849653  Biso 1.0 Se
Se7 1.0000000000 0.6111589959 0.0497670889 0.2564150347  Biso 1.0 Se
Se8 1.0000000000 0.8888410041 0.9502329111 0.7564150347  Biso 1.0 Se
Se9 1.0000000000 0.7564150347 0.3888410041 0.4502329111  Biso 1.0 Se
Se10 1.0000000000 0.2564150347 0.1111589959 0.5497670889  Biso 1.0 Se
Se11 1.0000000000 0.7435849653 0.6111589959 0.9502329111  Biso 1.0 Se
Se12 1.0000000000 0.2435849653 0.8888410041 0.0497670889  Biso 1.0 Se
Se13 1.0000000000 0.5497670889 0.7564150347 0.6111589959  Biso 1.0 Se
Se14 1.0000000000 0.4502329111 0.2564150347 0.8888410041  Biso 1.0 Se
Se15 1.0000000000 0.0497670889 0.7435849653 0.3888410041  Biso 1.0 Se
Se16 1.0000000000 0.9502329111 0.2435849653 0.1111589959  Biso 1.0 Se
Tl17 1.0000000000 0.9159600787 0.9159600787 0.0840399213  Biso 1.0 Tl
Tl18 1.0000000000 0.5840399213 0.0840399213 0.5840399213  Biso 1.0 Tl
Tl19 1.0000000000 0.0840399213 0.4159600787 0.4159600787  Biso 1.0 Tl
Tl20 1.0000000000 0.4159600787 0.5840399213 0.9159600787  Biso 1.0 Tl
Tl21 1.0000000000 0.4456642536 0.4456642536 0.5543357464  Biso 1.0 Tl
Tl22 1.0000000000 0.0543357464 0.5543357464 0.0543357464  Biso 1.0 Tl
Tl23 1.0000000000 0.5543357464 0.9456642536 0.9456642536  Biso 1.0 Tl
Tl24 1.0000000000 0.9456642536 0.0543357464 0.4456642536  Biso 1.0 Tl
Tl25 1.0000000000 0.6851850641 0.6851850641 0.3148149359  Biso 1.0 Tl
Tl26 1.0000000000 0.8148149359 0.3148149359 0.8148149359  Biso 1.0 Tl
Tl27 1.0000000000 0.3148149359 0.1851850641 0.1851850641  Biso 1.0 Tl
Tl28 1.0000000000 0.1851850641 0.8148149359 0.6851850641  Biso 1.0 Tl
