# AFLOW.org Repositories
# Sb3Si1Zr5   [HEX,HEX,hP18] (STD_PRIM doi
data_Sb3Si1Zr5
_pd_phase_name Sb3Si1Zr5
_cell_length_a  8.6656527023
_cell_length_b  8.6656527023
_cell_length_c  5.8591436238
_cell_angle_alpha  90.0000000000
_cell_angle_beta  90.0000000000
_cell_angle_gamma  120.0000000000
_symmetry_space_group_name_H-M  'P1'
_symmetry_Int_Tables_Number  1
loop_
_symmetry_equiv_pos_site_id
_symmetry_equiv_pos_as_xyz
  1  x,y,z
loop_
 _atom_site_label
 _atom_site_occupancy
 _atom_site_fract_x
 _atom_site_fract_y
 _atom_site_fract_z
 _atom_site_thermal_displace_type
 _atom_site_B_iso_or_equiv
 _atom_site_type_symbol
Sb1 1.0000000000 0.6049265552 0.0000000000 0.2500000000  Biso 1.0 Sb
Sb2 1.0000000000 0.0000000000 0.6049265552 0.2500000000  Biso 1.0 Sb
Sb3 1.0000000000 0.3950818744 0.3950818744 0.2500000000  Biso 1.0 Sb
Sb4 1.0000000000 0.3950734448 0.0000000000 0.7500000000  Biso 1.0 Sb
Sb5 1.0000000000 0.0000000000 0.3950734448 0.7500000000  Biso 1.0 Sb
Sb6 1.0000000000 0.6049181256 0.6049181256 0.7500000000  Biso 1.0 Sb
Si7 1.0000000000 0.0000000000 0.0000000000 0.0000000000  Biso 1.0 Si
Si8 1.0000000000 0.0000000000 0.0000000000 0.5000000000  Biso 1.0 Si
Zr9 1.0000000000 0.3333289305 0.6666710695 0.0000000000  Biso 1.0 Zr
Zr10 1.0000000000 0.6666710695 0.3333289305 0.5000000000  Biso 1.0 Zr
Zr11 1.0000000000 0.6666710695 0.3333289305 0.0000000000  Biso 1.0 Zr
Zr12 1.0000000000 0.3333289305 0.6666710695 0.5000000000  Biso 1.0 Zr
Zr13 1.0000000000 0.2598778379 0.0000000000 0.2500000000  Biso 1.0 Zr
Zr14 1.0000000000 0.0000000000 0.2598778379 0.2500000000  Biso 1.0 Zr
Zr15 1.0000000000 0.7401243220 0.7401243220 0.2500000000  Biso 1.0 Zr
Zr16 1.0000000000 0.7401221621 0.0000000000 0.7500000000  Biso 1.0 Zr
Zr17 1.0000000000 0.0000000000 0.7401221621 0.7500000000  Biso 1.0 Zr
Zr18 1.0000000000 0.2598756780 0.2598756780 0.7500000000  Biso 1.0 Zr
