# AFLOW.org Repositories
# Sc1Tc2   [HEX,HEX,hP12] (STD_PRIM doi:10
data_Sc1Tc2
_pd_phase_name Sc1Tc2
_cell_length_a  5.2744212508
_cell_length_b  5.2744212508
_cell_length_c  8.6724460122
_cell_angle_alpha  90.0000000000
_cell_angle_beta  90.0000000000
_cell_angle_gamma  120.0000000000
_symmetry_space_group_name_H-M  'P1'
_symmetry_Int_Tables_Number  1
loop_
_symmetry_equiv_pos_site_id
_symmetry_equiv_pos_as_xyz
  1  x,y,z
loop_
 _atom_site_label
 _atom_site_occupancy
 _atom_site_fract_x
 _atom_site_fract_y
 _atom_site_fract_z
 _atom_site_thermal_displace_type
 _atom_site_B_iso_or_equiv
 _atom_site_type_symbol
Sc1 1.0000000000 0.6666832770 0.3333665539 0.0624829464  Biso 1.0 Sc
Sc2 1.0000000000 0.3333167230 0.6666334461 0.5624829464  Biso 1.0 Sc
Sc3 1.0000000000 0.3333167230 0.6666334461 0.9375170536  Biso 1.0 Sc
Sc4 1.0000000000 0.6666832770 0.3333665539 0.4375170536  Biso 1.0 Sc
Tc5 1.0000000000 0.0000000000 0.0000000000 0.0000000000  Biso 1.0 Tc
Tc6 1.0000000000 0.0000000000 0.0000000000 0.5000000000  Biso 1.0 Tc
Tc7 1.0000000000 0.6562706135 0.8281449968 0.2500000000  Biso 1.0 Tc
Tc8 1.0000000000 0.1718743833 0.8281449968 0.2500000000  Biso 1.0 Tc
Tc9 1.0000000000 0.1718631148 0.3437262297 0.2500000000  Biso 1.0 Tc
Tc10 1.0000000000 0.3437293865 0.1718550032 0.7500000000  Biso 1.0 Tc
Tc11 1.0000000000 0.8281256167 0.1718550032 0.7500000000  Biso 1.0 Tc
Tc12 1.0000000000 0.8281368852 0.6562737703 0.7500000000  Biso 1.0 Tc
