# AFLOW.org Repositories
# Se1Zn1   [HEX,HEX,hP4] (STD_PRIM doi:10.
data_Se1Zn1
_pd_phase_name Se1Zn1
_cell_length_a  4.0032797686
_cell_length_b  4.0032797686
_cell_length_c  6.5790411758
_cell_angle_alpha  90.0000000000
_cell_angle_beta  90.0000000000
_cell_angle_gamma  120.0000000000
_symmetry_space_group_name_H-M  'P1'
_symmetry_Int_Tables_Number  1
loop_
_symmetry_equiv_pos_site_id
_symmetry_equiv_pos_as_xyz
  1  x,y,z
loop_
 _atom_site_label
 _atom_site_occupancy
 _atom_site_fract_x
 _atom_site_fract_y
 _atom_site_fract_z
 _atom_site_thermal_displace_type
 _atom_site_B_iso_or_equiv
 _atom_site_type_symbol
Se1 1.0000000000 0.3333619742 0.6666809871 0.3744563741  Biso 1.0 Se
Se2 1.0000000000 0.6666380258 0.3333190129 0.8744563741  Biso 1.0 Se
Zn3 1.0000000000 0.3333606668 0.6666803334 0.0000000000  Biso 1.0 Zn
Zn4 1.0000000000 0.6666393332 0.3333196666 0.5005436259  Biso 1.0 Zn
