# AFLOW.org Repositories
# Se2Ta1   [HEX,HEX,hP12] (STD_PRIM doi:10
data_Se2Ta1
_pd_phase_name Se2Ta1
_cell_length_a  3.4930967158
_cell_length_b  3.4930967158
_cell_length_c  27.7712675792
_cell_angle_alpha  90.0000000000
_cell_angle_beta  90.0000000000
_cell_angle_gamma  120.0000000000
_symmetry_space_group_name_H-M  'P1'
_symmetry_Int_Tables_Number  1
loop_
_symmetry_equiv_pos_site_id
_symmetry_equiv_pos_as_xyz
  1  x,y,z
loop_
 _atom_site_label
 _atom_site_occupancy
 _atom_site_fract_x
 _atom_site_fract_y
 _atom_site_fract_z
 _atom_site_thermal_displace_type
 _atom_site_B_iso_or_equiv
 _atom_site_type_symbol
Se1 1.0000000000 0.3333260334 0.6666520668 0.0607421945  Biso 1.0 Se
Se2 1.0000000000 0.3333260334 0.6666520668 0.9392578055  Biso 1.0 Se
Se3 1.0000000000 0.0000000000 0.0000000000 0.1893298097  Biso 1.0 Se
Se4 1.0000000000 0.0000000000 0.0000000000 0.8106701903  Biso 1.0 Se
Se5 1.0000000000 0.0000000000 0.0000000000 0.3108460500  Biso 1.0 Se
Se6 1.0000000000 0.0000000000 0.0000000000 0.6891539500  Biso 1.0 Se
Se7 1.0000000000 0.6666729998 0.3333459997 0.4392720149  Biso 1.0 Se
Se8 1.0000000000 0.6666729998 0.3333459997 0.5607279851  Biso 1.0 Se
Ta9 1.0000000000 0.6666508143 0.3333016287 0.0000000000  Biso 1.0 Ta
Ta10 1.0000000000 0.3333483896 0.6666967791 0.5000000000  Biso 1.0 Ta
Ta11 1.0000000000 0.3333191145 0.6666382290 0.2501559727  Biso 1.0 Ta
Ta12 1.0000000000 0.3333191145 0.6666382290 0.7498440273  Biso 1.0 Ta
