# AFLOW.org Repositories
# Si1   [BCT,BCT1,tI8] (STD_PRIM doi:10.10
data_Si1
_pd_phase_name Si1
_cell_length_a  5.1077115059
_cell_length_b  5.1077115059
_cell_length_c  5.1077115059
_cell_angle_alpha  98.2056593914
_cell_angle_beta  98.2056593914
_cell_angle_gamma  135.6060540019
_symmetry_space_group_name_H-M  'P1'
_symmetry_Int_Tables_Number  1
loop_
_symmetry_equiv_pos_site_id
_symmetry_equiv_pos_as_xyz
  1  x,y,z
loop_
 _atom_site_label
 _atom_site_occupancy
 _atom_site_fract_x
 _atom_site_fract_y
 _atom_site_fract_z
 _atom_site_thermal_displace_type
 _atom_site_B_iso_or_equiv
 _atom_site_type_symbol
Si1 1.0000000000 0.8213633996 0.8213633996 0.6427267993  Biso 1.0 Si
Si2 1.0000000000 0.1786366004 0.1786366004 0.3572732007  Biso 1.0 Si
Si3 1.0000000000 0.1786366004 0.8213633996 0.0000000000  Biso 1.0 Si
Si4 1.0000000000 0.8213633996 0.1786366004 0.0000000000  Biso 1.0 Si
