# AFLOW.org Repositories
# Si1   [MCL,MCL,mP82] (STD_PRIM doi:10.10
data_Si1
_pd_phase_name Si1
_cell_length_a  14.8533694636
_cell_length_b  14.8533694636
_cell_length_c  9.9018042749
_cell_angle_alpha  86.2800150944
_cell_angle_beta  86.2800150944
_cell_angle_gamma  61.6120043606
_symmetry_space_group_name_H-M  'P1'
_symmetry_Int_Tables_Number  1
loop_
_symmetry_equiv_pos_site_id
_symmetry_equiv_pos_as_xyz
  1  x,y,z
loop_
 _atom_site_label
 _atom_site_occupancy
 _atom_site_fract_x
 _atom_site_fract_y
 _atom_site_fract_z
 _atom_site_thermal_displace_type
 _atom_site_B_iso_or_equiv
 _atom_site_type_symbol
Si1 1.0000000000 0.3467423312 0.5449613551 0.3990731244  Biso 1.0 Si
Si2 1.0000000000 0.4550386449 0.6532576688 0.1009268756  Biso 1.0 Si
Si3 1.0000000000 0.6532576688 0.4550386449 0.6009268756  Biso 1.0 Si
Si4 1.0000000000 0.5449613551 0.3467423312 0.8990731244  Biso 1.0 Si
Si5 1.0000000000 0.3214287178 0.4008593511 0.3937729472  Biso 1.0 Si
Si6 1.0000000000 0.5991406489 0.6785712822 0.1062270528  Biso 1.0 Si
Si7 1.0000000000 0.6785712822 0.5991406489 0.6062270528  Biso 1.0 Si
Si8 1.0000000000 0.4008593511 0.3214287178 0.8937729472  Biso 1.0 Si
Si9 1.0000000000 0.4567488524 0.2759551056 0.2658706304  Biso 1.0 Si
Si10 1.0000000000 0.7240448944 0.5432511476 0.2341293696  Biso 1.0 Si
Si11 1.0000000000 0.5432511476 0.7240448944 0.7341293696  Biso 1.0 Si
Si12 1.0000000000 0.2759551056 0.4567488524 0.7658706304  Biso 1.0 Si
Si13 1.0000000000 0.5464226375 0.1156220522 0.3807846043  Biso 1.0 Si
Si14 1.0000000000 0.8843779478 0.4535773625 0.1192153957  Biso 1.0 Si
Si15 1.0000000000 0.4535773625 0.8843779478 0.6192153957  Biso 1.0 Si
Si16 1.0000000000 0.1156220522 0.5464226375 0.8807846043  Biso 1.0 Si
Si17 1.0000000000 0.6564827362 0.4453442975 0.3596682763  Biso 1.0 Si
Si18 1.0000000000 0.5546557025 0.3435172638 0.1403317237  Biso 1.0 Si
Si19 1.0000000000 0.3435172638 0.5546557025 0.6403317237  Biso 1.0 Si
Si20 1.0000000000 0.4453442975 0.6564827362 0.8596682763  Biso 1.0 Si
Si21 1.0000000000 0.8235245480 0.0451745517 0.5071411331  Biso 1.0 Si
Si22 1.0000000000 0.9548254483 0.1764754520 0.9928588669  Biso 1.0 Si
Si23 1.0000000000 0.1764754520 0.9548254483 0.4928588669  Biso 1.0 Si
Si24 1.0000000000 0.0451745517 0.8235245480 0.0071411331  Biso 1.0 Si
Si25 1.0000000000 0.7188468557 0.0698275839 0.3219331066  Biso 1.0 Si
Si26 1.0000000000 0.9301724161 0.2811531443 0.1780668934  Biso 1.0 Si
Si27 1.0000000000 0.2811531443 0.9301724161 0.6780668934  Biso 1.0 Si
Si28 1.0000000000 0.0698275839 0.7188468557 0.8219331066  Biso 1.0 Si
Si29 1.0000000000 0.8730154350 0.1767390850 0.5050341574  Biso 1.0 Si
Si30 1.0000000000 0.8232609150 0.1269845650 0.9949658426  Biso 1.0 Si
Si31 1.0000000000 0.1269845650 0.8232609150 0.4949658426  Biso 1.0 Si
Si32 1.0000000000 0.1767390850 0.8730154350 0.0050341574  Biso 1.0 Si
Si33 1.0000000000 0.7202179855 0.2060549115 0.1874469388  Biso 1.0 Si
Si34 1.0000000000 0.7939450885 0.2797820145 0.3125530612  Biso 1.0 Si
Si35 1.0000000000 0.2797820145 0.7939450885 0.8125530612  Biso 1.0 Si
Si36 1.0000000000 0.2060549115 0.7202179855 0.6874469388  Biso 1.0 Si
Si37 1.0000000000 0.8846195015 0.6487934249 0.4037852171  Biso 1.0 Si
Si38 1.0000000000 0.3512065751 0.1153804985 0.0962147829  Biso 1.0 Si
Si39 1.0000000000 0.1153804985 0.3512065751 0.5962147829  Biso 1.0 Si
Si40 1.0000000000 0.6487934249 0.8846195015 0.9037852171  Biso 1.0 Si
Si41 1.0000000000 0.7252514250 0.6523050709 0.3961864713  Biso 1.0 Si
Si42 1.0000000000 0.3476949291 0.2747485750 0.1038135287  Biso 1.0 Si
Si43 1.0000000000 0.2747485750 0.3476949291 0.6038135287  Biso 1.0 Si
Si44 1.0000000000 0.6523050709 0.7252514250 0.8961864713  Biso 1.0 Si
Si45 1.0000000000 0.2134529787 0.3988927856 0.2337872079  Biso 1.0 Si
Si46 1.0000000000 0.6011072144 0.7865470213 0.2662127921  Biso 1.0 Si
Si47 1.0000000000 0.7865470213 0.6011072144 0.7662127921  Biso 1.0 Si
Si48 1.0000000000 0.3988927856 0.2134529787 0.7337872079  Biso 1.0 Si
Si49 1.0000000000 0.0972440901 0.5499531430 0.1215539348  Biso 1.0 Si
Si50 1.0000000000 0.4500468570 0.9027559099 0.3784460652  Biso 1.0 Si
Si51 1.0000000000 0.9027559099 0.4500468570 0.8784460652  Biso 1.0 Si
Si52 1.0000000000 0.5499531430 0.0972440901 0.6215539348  Biso 1.0 Si
Si53 1.0000000000 0.9751809128 0.5134918159 0.2463687152  Biso 1.0 Si
Si54 1.0000000000 0.4865081841 0.0248190872 0.2536312848  Biso 1.0 Si
Si55 1.0000000000 0.0248190872 0.4865081841 0.7536312848  Biso 1.0 Si
Si56 1.0000000000 0.5134918159 0.9751809128 0.7463687152  Biso 1.0 Si
Si57 1.0000000000 0.0937399413 0.3598722617 0.3583573801  Biso 1.0 Si
Si58 1.0000000000 0.6401277383 0.9062600587 0.1416426199  Biso 1.0 Si
Si59 1.0000000000 0.9062600587 0.6401277383 0.6416426199  Biso 1.0 Si
Si60 1.0000000000 0.3598722617 0.0937399413 0.8583573801  Biso 1.0 Si
Si61 1.0000000000 0.2119243836 0.7070215791 0.3176401970  Biso 1.0 Si
Si62 1.0000000000 0.2929784209 0.7880756164 0.1823598030  Biso 1.0 Si
Si63 1.0000000000 0.7880756164 0.2929784209 0.6823598030  Biso 1.0 Si
Si64 1.0000000000 0.7070215791 0.2119243836 0.8176401970  Biso 1.0 Si
Si65 1.0000000000 0.0758596473 0.7080226461 0.1968994083  Biso 1.0 Si
Si66 1.0000000000 0.2919773539 0.9241403527 0.3031005917  Biso 1.0 Si
Si67 1.0000000000 0.9241403527 0.2919773539 0.8031005917  Biso 1.0 Si
Si68 1.0000000000 0.7080226461 0.0758596473 0.6968994083  Biso 1.0 Si
Si69 1.0000000000 0.9491011020 0.8683393880 0.5021518326  Biso 1.0 Si
Si70 1.0000000000 0.1316606120 0.0508988980 0.9978481674  Biso 1.0 Si
Si71 1.0000000000 0.0508988980 0.1316606120 0.4978481674  Biso 1.0 Si
Si72 1.0000000000 0.8683393880 0.9491011020 0.0021518326  Biso 1.0 Si
Si73 1.0000000000 0.9176695570 0.7855686255 0.3254391859  Biso 1.0 Si
Si74 1.0000000000 0.2144313745 0.0823304430 0.1745608141  Biso 1.0 Si
Si75 1.0000000000 0.0823304430 0.2144313745 0.6745608141  Biso 1.0 Si
Si76 1.0000000000 0.7855686255 0.9176695570 0.8254391859  Biso 1.0 Si
Si77 1.0000000000 0.7862506925 0.9195622542 0.1988548707  Biso 1.0 Si
Si78 1.0000000000 0.0804377458 0.2137493075 0.3011451293  Biso 1.0 Si
Si79 1.0000000000 0.2137493075 0.0804377458 0.8011451293  Biso 1.0 Si
Si80 1.0000000000 0.9195622542 0.7862506925 0.6988548707  Biso 1.0 Si
Si81 1.0000000000 0.4981410957 0.5018589043 0.2500000000  Biso 1.0 Si
Si82 1.0000000000 0.5018589043 0.4981410957 0.7500000000  Biso 1.0 Si
