# AFLOW.org Repositories
# Si1   [BCC,BCC,cI16] (STD_PRIM doi:10.10
data_Si1
_pd_phase_name Si1
_cell_length_a  5.7651590894
_cell_length_b  5.7651590894
_cell_length_c  5.7651590894
_cell_angle_alpha  109.4712206345
_cell_angle_beta  109.4712206345
_cell_angle_gamma  109.4712206345
_symmetry_space_group_name_H-M  'P1'
_symmetry_Int_Tables_Number  1
loop_
_symmetry_equiv_pos_site_id
_symmetry_equiv_pos_as_xyz
  1  x,y,z
loop_
 _atom_site_label
 _atom_site_occupancy
 _atom_site_fract_x
 _atom_site_fract_y
 _atom_site_fract_z
 _atom_site_thermal_displace_type
 _atom_site_B_iso_or_equiv
 _atom_site_type_symbol
Si1 1.0000000000 0.0000000000 0.2027117176 0.0000000000  Biso 1.0 Si
Si2 1.0000000000 0.5000000000 0.0000000000 0.7027117176  Biso 1.0 Si
Si3 1.0000000000 0.2972882824 0.2972882824 0.7972882824  Biso 1.0 Si
Si4 1.0000000000 0.2027117176 0.5000000000 0.5000000000  Biso 1.0 Si
Si5 1.0000000000 0.0000000000 0.7972882824 0.0000000000  Biso 1.0 Si
Si6 1.0000000000 0.5000000000 0.0000000000 0.2972882824  Biso 1.0 Si
Si7 1.0000000000 0.7027117176 0.7027117176 0.2027117176  Biso 1.0 Si
Si8 1.0000000000 0.7972882824 0.5000000000 0.5000000000  Biso 1.0 Si
