# AFLOW.org Repositories
# Si1Sn3Zr5   [HEX,HEX,hP18] (STD_PRIM doi
data_Si1Sn3Zr5
_pd_phase_name Si1Sn3Zr5
_cell_length_a  8.7356608807
_cell_length_b  8.7356608807
_cell_length_c  5.9206047001
_cell_angle_alpha  90.0000000000
_cell_angle_beta  90.0000000000
_cell_angle_gamma  120.0000000000
_symmetry_space_group_name_H-M  'P1'
_symmetry_Int_Tables_Number  1
loop_
_symmetry_equiv_pos_site_id
_symmetry_equiv_pos_as_xyz
  1  x,y,z
loop_
 _atom_site_label
 _atom_site_occupancy
 _atom_site_fract_x
 _atom_site_fract_y
 _atom_site_fract_z
 _atom_site_thermal_displace_type
 _atom_site_B_iso_or_equiv
 _atom_site_type_symbol
Si1 1.0000000000 0.0000000000 0.0000000000 0.0000000000  Biso 1.0 Si
Si2 1.0000000000 0.0000000000 0.0000000000 0.5000000000  Biso 1.0 Si
Sn3 1.0000000000 0.0000000000 0.3943191523 0.2500000000  Biso 1.0 Sn
Sn4 1.0000000000 0.6056808477 0.6056808477 0.2500000000  Biso 1.0 Sn
Sn5 1.0000000000 0.3943237063 0.0000000000 0.2500000000  Biso 1.0 Sn
Sn6 1.0000000000 0.0000000000 0.6056808477 0.7500000000  Biso 1.0 Sn
Sn7 1.0000000000 0.3943191523 0.3943191523 0.7500000000  Biso 1.0 Sn
Sn8 1.0000000000 0.6056762937 0.0000000000 0.7500000000  Biso 1.0 Sn
Zr9 1.0000000000 0.6666668828 0.3333337657 0.0000000000  Biso 1.0 Zr
Zr10 1.0000000000 0.3333331172 0.6666662343 0.5000000000  Biso 1.0 Zr
Zr11 1.0000000000 0.3333331172 0.6666662343 0.0000000000  Biso 1.0 Zr
Zr12 1.0000000000 0.6666668828 0.3333337657 0.5000000000  Biso 1.0 Zr
Zr13 1.0000000000 0.0000000000 0.7431894177 0.2500000000  Biso 1.0 Zr
Zr14 1.0000000000 0.2568105823 0.2568105823 0.2500000000  Biso 1.0 Zr
Zr15 1.0000000000 0.7431921033 0.0000000000 0.2500000000  Biso 1.0 Zr
Zr16 1.0000000000 0.0000000000 0.2568105823 0.7500000000  Biso 1.0 Zr
Zr17 1.0000000000 0.7431894177 0.7431894177 0.7500000000  Biso 1.0 Zr
Zr18 1.0000000000 0.2568078967 0.0000000000 0.7500000000  Biso 1.0 Zr
