# AFLOW.org Repositories
# Si2Sr1   [CUB,CUB,cP12] (STD_PRIM doi:10
data_Si2Sr1
_pd_phase_name Si2Sr1
_cell_length_a  6.5630000000
_cell_length_b  6.5630000000
_cell_length_c  6.5630000000
_cell_angle_alpha  90.0000000000
_cell_angle_beta  90.0000000000
_cell_angle_gamma  90.0000000000
_symmetry_space_group_name_H-M  'P1'
_symmetry_Int_Tables_Number  1
loop_
_symmetry_equiv_pos_site_id
_symmetry_equiv_pos_as_xyz
  1  x,y,z
loop_
 _atom_site_label
 _atom_site_occupancy
 _atom_site_fract_x
 _atom_site_fract_y
 _atom_site_fract_z
 _atom_site_thermal_displace_type
 _atom_site_B_iso_or_equiv
 _atom_site_type_symbol
Si1 1.0000000000 0.5776000000 0.5776000000 0.4224000000  Biso 1.0 Si
Si2 1.0000000000 0.9224000000 0.4224000000 0.9224000000  Biso 1.0 Si
Si3 1.0000000000 0.4224000000 0.0776000000 0.0776000000  Biso 1.0 Si
Si4 1.0000000000 0.0776000000 0.9224000000 0.5776000000  Biso 1.0 Si
Si5 1.0000000000 0.3276000000 0.8276000000 0.3276000000  Biso 1.0 Si
Si6 1.0000000000 0.1724000000 0.1724000000 0.8276000000  Biso 1.0 Si
Si7 1.0000000000 0.8276000000 0.6724000000 0.6724000000  Biso 1.0 Si
Si8 1.0000000000 0.6724000000 0.3276000000 0.1724000000  Biso 1.0 Si
Sr9 1.0000000000 0.8750000000 0.8750000000 0.1250000000  Biso 1.0 Sr
Sr10 1.0000000000 0.6250000000 0.1250000000 0.6250000000  Biso 1.0 Sr
Sr11 1.0000000000 0.1250000000 0.3750000000 0.3750000000  Biso 1.0 Sr
Sr12 1.0000000000 0.3750000000 0.6250000000 0.8750000000  Biso 1.0 Sr
