# AFLOW.org Repositories
# Si2W1   [BCT,BCT2,tI6] (STD_PRIM doi:10.
data_Si2W1
_pd_phase_name Si2W1
_cell_length_a  4.5612688073
_cell_length_b  4.5612688073
_cell_length_c  4.5612688073
_cell_angle_alpha  138.3903709502
_cell_angle_beta  138.3903709502
_cell_angle_gamma  60.3056504277
_symmetry_space_group_name_H-M  'P1'
_symmetry_Int_Tables_Number  1
loop_
_symmetry_equiv_pos_site_id
_symmetry_equiv_pos_as_xyz
  1  x,y,z
loop_
 _atom_site_label
 _atom_site_occupancy
 _atom_site_fract_x
 _atom_site_fract_y
 _atom_site_fract_z
 _atom_site_thermal_displace_type
 _atom_site_B_iso_or_equiv
 _atom_site_type_symbol
Si1 1.0000000000 0.3346540542 0.3346540542 0.0000000000  Biso 1.0 Si
Si2 1.0000000000 0.6653459458 0.6653459458 0.0000000000  Biso 1.0 Si
W3 1.0000000000 0.0000000000 0.0000000000 0.0000000000  Biso 1.0 W
