# AFLOW.org Repositories
# Te1Zr1   [HEX,HEX,hP2] (STD_PRIM doi:10.
data_Te1Zr1
_pd_phase_name Te1Zr1
_cell_length_a  3.7996904038
_cell_length_b  3.7996904038
_cell_length_c  3.8942369711
_cell_angle_alpha  90.0000000000
_cell_angle_beta  90.0000000000
_cell_angle_gamma  120.0000000000
_symmetry_space_group_name_H-M  'P1'
_symmetry_Int_Tables_Number  1
loop_
_symmetry_equiv_pos_site_id
_symmetry_equiv_pos_as_xyz
  1  x,y,z
loop_
 _atom_site_label
 _atom_site_occupancy
 _atom_site_fract_x
 _atom_site_fract_y
 _atom_site_fract_z
 _atom_site_thermal_displace_type
 _atom_site_B_iso_or_equiv
 _atom_site_type_symbol
Te1 1.0000000000 0.6666896773 0.3333793545 0.5000000000  Biso 1.0 Te
Zr2 1.0000000000 0.0000000000 0.0000000000 0.0000000000  Biso 1.0 Zr
