# AFLOW.org Repositories
# Ag1Al1O2   [HEX,HEX,hP8] (STD_PRIM doi:1
data_Ag1Al1O2
_pd_phase_name Ag1Al1O2
_cell_length_a  2.9155302476
_cell_length_b  2.9155302476
_cell_length_c  12.4171799000
_cell_angle_alpha  90.0000000000
_cell_angle_beta  90.0000000000
_cell_angle_gamma  120.0000000000
_symmetry_space_group_name_H-M  'P1'
_symmetry_Int_Tables_Number  1
loop_
_symmetry_equiv_pos_site_id
_symmetry_equiv_pos_as_xyz
  1  x,y,z
loop_
 _atom_site_label
 _atom_site_occupancy
 _atom_site_fract_x
 _atom_site_fract_y
 _atom_site_fract_z
 _atom_site_thermal_displace_type
 _atom_site_B_iso_or_equiv
 _atom_site_type_symbol
Ag1 1.0000000000 0.3333024471 0.6666975529 0.2500000000  Biso 1.0 Ag
Ag2 1.0000000000 0.6666975529 0.3333024471 0.7500000000  Biso 1.0 Ag
Al3 1.0000000000 0.0000000000 0.0000000000 0.0000000000  Biso 1.0 Al
Al4 1.0000000000 0.0000000000 0.0000000000 0.5000000000  Biso 1.0 Al
O5 1.0000000000 0.3333172171 0.6666827829 0.0774240680  Biso 1.0 O
O6 1.0000000000 0.6666827829 0.3333172171 0.5774240680  Biso 1.0 O
O7 1.0000000000 0.6666827829 0.3333172171 0.9225759320  Biso 1.0 O
O8 1.0000000000 0.3333172171 0.6666827829 0.4225759320  Biso 1.0 O
