# AFLOW.org Repositories
# Ag1Dy1Sn1   [HEX,HEX,hP6] (STD_PRIM doi:
data_Ag1Dy1Sn1
_pd_phase_name Ag1Dy1Sn1
_cell_length_a  4.7740189294
_cell_length_b  4.7740189294
_cell_length_c  7.4160042500
_cell_angle_alpha  90.0000000000
_cell_angle_beta  90.0000000000
_cell_angle_gamma  120.0000000000
_symmetry_space_group_name_H-M  'P1'
_symmetry_Int_Tables_Number  1
loop_
_symmetry_equiv_pos_site_id
_symmetry_equiv_pos_as_xyz
  1  x,y,z
loop_
 _atom_site_label
 _atom_site_occupancy
 _atom_site_fract_x
 _atom_site_fract_y
 _atom_site_fract_z
 _atom_site_thermal_displace_type
 _atom_site_B_iso_or_equiv
 _atom_site_type_symbol
Ag1 1.0000000000 0.6666606588 0.3333303294 0.3078797768  Biso 1.0 Ag
Ag2 1.0000000000 0.3333393412 0.6666696706 0.8078797768  Biso 1.0 Ag
Dy3 1.0000000000 0.0000000000 0.0000000000 0.0000000000  Biso 1.0 Dy
Dy4 1.0000000000 0.0000000000 0.0000000000 0.4998067801  Biso 1.0 Dy
Sn5 1.0000000000 0.6666715829 0.3333357914 0.7202834431  Biso 1.0 Sn
Sn6 1.0000000000 0.3333284171 0.6666642086 0.2202834431  Biso 1.0 Sn
