# AFLOW.org Repositories
# Ag1La1Pb1   [HEX,HEX,hP6] (STD_PRIM doi:
data_Ag1La1Pb1
_pd_phase_name Ag1La1Pb1
_cell_length_a  4.9741661674
_cell_length_b  4.9741661674
_cell_length_c  7.9468053806
_cell_angle_alpha  90.0000000000
_cell_angle_beta  90.0000000000
_cell_angle_gamma  120.0000000000
_symmetry_space_group_name_H-M  'P1'
_symmetry_Int_Tables_Number  1
loop_
_symmetry_equiv_pos_site_id
_symmetry_equiv_pos_as_xyz
  1  x,y,z
loop_
 _atom_site_label
 _atom_site_occupancy
 _atom_site_fract_x
 _atom_site_fract_y
 _atom_site_fract_z
 _atom_site_thermal_displace_type
 _atom_site_B_iso_or_equiv
 _atom_site_type_symbol
Ag1 1.0000000000 0.3333439995 0.6666719998 0.8107039447  Biso 1.0 Ag
Ag2 1.0000000000 0.6666560005 0.3333280002 0.3107039447  Biso 1.0 Ag
La3 1.0000000000 0.0000000000 0.0000000000 0.0131341934  Biso 1.0 La
La4 1.0000000000 0.0000000000 0.0000000000 0.5131341934  Biso 1.0 La
Pb5 1.0000000000 0.3333982229 0.6666991114 0.2331618619  Biso 1.0 Pb
Pb6 1.0000000000 0.6666017771 0.3333008886 0.7331618619  Biso 1.0 Pb
