# AFLOW.org Repositories
# Ag1O2Y1   [HEX,HEX,hP8] (STD_PRIM doi:10
data_Ag1O2Y1
_pd_phase_name Ag1O2Y1
_cell_length_a  3.5394237567
_cell_length_b  3.5394237567
_cell_length_c  12.6543457186
_cell_angle_alpha  90.0000000000
_cell_angle_beta  90.0000000000
_cell_angle_gamma  120.0000000000
_symmetry_space_group_name_H-M  'P1'
_symmetry_Int_Tables_Number  1
loop_
_symmetry_equiv_pos_site_id
_symmetry_equiv_pos_as_xyz
  1  x,y,z
loop_
 _atom_site_label
 _atom_site_occupancy
 _atom_site_fract_x
 _atom_site_fract_y
 _atom_site_fract_z
 _atom_site_thermal_displace_type
 _atom_site_B_iso_or_equiv
 _atom_site_type_symbol
Ag1 1.0000000000 0.6666980845 0.3333961689 0.2500000000  Biso 1.0 Ag
Ag2 1.0000000000 0.3333019155 0.6666038311 0.7500000000  Biso 1.0 Ag
O3 1.0000000000 0.6666844399 0.3333688798 0.0834385153  Biso 1.0 O
O4 1.0000000000 0.3333155601 0.6666311202 0.5834385153  Biso 1.0 O
O5 1.0000000000 0.3333155601 0.6666311202 0.9165614847  Biso 1.0 O
O6 1.0000000000 0.6666844399 0.3333688798 0.4165614847  Biso 1.0 O
Y7 1.0000000000 0.0000000000 0.0000000000 0.0000000000  Biso 1.0 Y
Y8 1.0000000000 0.0000000000 0.0000000000 0.5000000000  Biso 1.0 Y
