# AFLOW.org Repositories
# Ag1P1Sr1   [HEX,HEX,hP6] (STD_PRIM doi:1
data_Ag1P1Sr1
_pd_phase_name Ag1P1Sr1
_cell_length_a  4.4673030562
_cell_length_b  4.4673030562
_cell_length_c  8.2699711236
_cell_angle_alpha  90.0000000000
_cell_angle_beta  90.0000000000
_cell_angle_gamma  120.0000000000
_symmetry_space_group_name_H-M  'P1'
_symmetry_Int_Tables_Number  1
loop_
_symmetry_equiv_pos_site_id
_symmetry_equiv_pos_as_xyz
  1  x,y,z
loop_
 _atom_site_label
 _atom_site_occupancy
 _atom_site_fract_x
 _atom_site_fract_y
 _atom_site_fract_z
 _atom_site_thermal_displace_type
 _atom_site_B_iso_or_equiv
 _atom_site_type_symbol
Ag1 1.0000000000 0.3333592604 0.6666796302 0.7500000000  Biso 1.0 Ag
Ag2 1.0000000000 0.6666407396 0.3333203698 0.2500000000  Biso 1.0 Ag
P3 1.0000000000 0.3333597338 0.6666798669 0.2500000000  Biso 1.0 P
P4 1.0000000000 0.6666402662 0.3333201331 0.7500000000  Biso 1.0 P
Sr5 1.0000000000 0.0000000000 0.0000000000 0.0000000000  Biso 1.0 Sr
Sr6 1.0000000000 0.0000000000 0.0000000000 0.5000000000  Biso 1.0 Sr
