# AFLOW.org Repositories
# Ag2Ca1Ge2   [BCT,BCT2,tI10] (STD_PRIM do
data_Ag2Ca1Ge2
_pd_phase_name Ag2Ca1Ge2
_cell_length_a  6.3964208854
_cell_length_b  6.3964208854
_cell_length_c  6.3964208854
_cell_angle_alpha  140.2420922155
_cell_angle_beta  140.2420922155
_cell_angle_gamma  57.4859000491
_symmetry_space_group_name_H-M  'P1'
_symmetry_Int_Tables_Number  1
loop_
_symmetry_equiv_pos_site_id
_symmetry_equiv_pos_as_xyz
  1  x,y,z
loop_
 _atom_site_label
 _atom_site_occupancy
 _atom_site_fract_x
 _atom_site_fract_y
 _atom_site_fract_z
 _atom_site_thermal_displace_type
 _atom_site_B_iso_or_equiv
 _atom_site_type_symbol
Ag1 1.0000000000 0.2500000000 0.7500000000 0.5000000000  Biso 1.0 Ag
Ag2 1.0000000000 0.7500000000 0.2500000000 0.5000000000  Biso 1.0 Ag
Ca3 1.0000000000 0.0000000000 0.0000000000 0.0000000000  Biso 1.0 Ca
Ge4 1.0000000000 0.6075073185 0.6075073185 0.0000000000  Biso 1.0 Ge
Ge5 1.0000000000 0.3924926815 0.3924926815 0.0000000000  Biso 1.0 Ge
