# AFLOW.org Repositories
# Ag2Dy1   [BCT,BCT2,tI6] (STD_PRIM doi:10
data_Ag2Dy1
_pd_phase_name Ag2Dy1
_cell_length_a  5.3734607955
_cell_length_b  5.3734607955
_cell_length_c  5.3734607955
_cell_angle_alpha  139.4166732636
_cell_angle_beta  139.4166732636
_cell_angle_gamma  58.7400774299
_symmetry_space_group_name_H-M  'P1'
_symmetry_Int_Tables_Number  1
loop_
_symmetry_equiv_pos_site_id
_symmetry_equiv_pos_as_xyz
  1  x,y,z
loop_
 _atom_site_label
 _atom_site_occupancy
 _atom_site_fract_x
 _atom_site_fract_y
 _atom_site_fract_z
 _atom_site_thermal_displace_type
 _atom_site_B_iso_or_equiv
 _atom_site_type_symbol
Ag1 1.0000000000 0.3278817014 0.3278817014 0.0000000000  Biso 1.0 Ag
Ag2 1.0000000000 0.6721182986 0.6721182986 0.0000000000  Biso 1.0 Ag
Dy3 1.0000000000 0.0000000000 0.0000000000 0.0000000000  Biso 1.0 Dy
