# AFLOW.org Repositories
# Ag2Sr1   [ORCI,ORCI,oI12] (STD_PRIM doi:
data_Ag2Sr1
_pd_phase_name Ag2Sr1
_cell_length_a  6.2209798035
_cell_length_b  6.2209798035
_cell_length_c  6.2209798035
_cell_angle_alpha  133.9133384610
_cell_angle_beta  102.6273488463
_cell_angle_gamma  95.0382860338
_symmetry_space_group_name_H-M  'P1'
_symmetry_Int_Tables_Number  1
loop_
_symmetry_equiv_pos_site_id
_symmetry_equiv_pos_as_xyz
  1  x,y,z
loop_
 _atom_site_label
 _atom_site_occupancy
 _atom_site_fract_x
 _atom_site_fract_y
 _atom_site_fract_z
 _atom_site_thermal_displace_type
 _atom_site_B_iso_or_equiv
 _atom_site_type_symbol
Ag1 1.0000000000 0.7846757994 0.3368685909 0.4478072084  Biso 1.0 Ag
Ag2 1.0000000000 0.3890613825 0.3368685909 0.0521927916  Biso 1.0 Ag
Ag3 1.0000000000 0.6109386175 0.6631314091 0.9478072084  Biso 1.0 Ag
Ag4 1.0000000000 0.2153242006 0.6631314091 0.5521927916  Biso 1.0 Ag
Sr5 1.0000000000 0.7930611219 0.0430611219 0.7500000000  Biso 1.0 Sr
Sr6 1.0000000000 0.2069388781 0.9569388781 0.2500000000  Biso 1.0 Sr
