# AFLOW.org Repositories
# Al0.4C0.2Nb0.6   [CUB,CUB,cP24] (STD_PRI
data_Al0.4C0.2Nb0.6
_pd_phase_name Al0.4C0.2Nb0.6
_cell_length_a  7.1357264351
_cell_length_b  7.1357264351
_cell_length_c  7.1357264351
_cell_angle_alpha  90.0000000000
_cell_angle_beta  90.0000000000
_cell_angle_gamma  90.0000000000
_symmetry_space_group_name_H-M  'P1'
_symmetry_Int_Tables_Number  1
loop_
_symmetry_equiv_pos_site_id
_symmetry_equiv_pos_as_xyz
  1  x,y,z
loop_
 _atom_site_label
 _atom_site_occupancy
 _atom_site_fract_x
 _atom_site_fract_y
 _atom_site_fract_z
 _atom_site_thermal_displace_type
 _atom_site_B_iso_or_equiv
 _atom_site_type_symbol
Al1 1.0000000000 0.9296806545 0.9296806545 0.0703193455  Biso 1.0 Al
Al2 1.0000000000 0.5703193455 0.0703193455 0.5703193455  Biso 1.0 Al
Al3 1.0000000000 0.0703193455 0.4296806545 0.4296806545  Biso 1.0 Al
Al4 1.0000000000 0.4296806545 0.5703193455 0.9296806545  Biso 1.0 Al
Al5 1.0000000000 0.1796806545 0.6796806545 0.1796806545  Biso 1.0 Al
Al6 1.0000000000 0.3203193455 0.3203193455 0.6796806545  Biso 1.0 Al
Al7 1.0000000000 0.6796806545 0.8203193455 0.8203193455  Biso 1.0 Al
Al8 1.0000000000 0.8203193455 0.1796806545 0.3203193455  Biso 1.0 Al
C9 1.0000000000 0.6250000000 0.6250000000 0.3750000000  Biso 1.0 C
C10 1.0000000000 0.8750000000 0.3750000000 0.8750000000  Biso 1.0 C
C11 1.0000000000 0.3750000000 0.1250000000 0.1250000000  Biso 1.0 C
C12 1.0000000000 0.1250000000 0.8750000000 0.6250000000  Biso 1.0 C
Nb13 1.0000000000 0.8750000000 0.7945977065 0.4554022935  Biso 1.0 Nb
Nb14 1.0000000000 0.6250000000 0.2054022935 0.9554022935  Biso 1.0 Nb
Nb15 1.0000000000 0.1250000000 0.2945977065 0.0445977065  Biso 1.0 Nb
Nb16 1.0000000000 0.3750000000 0.7054022935 0.5445977065  Biso 1.0 Nb
Nb17 1.0000000000 0.5445977065 0.8750000000 0.2054022935  Biso 1.0 Nb
Nb18 1.0000000000 0.0445977065 0.6250000000 0.7945977065  Biso 1.0 Nb
Nb19 1.0000000000 0.9554022935 0.1250000000 0.7054022935  Biso 1.0 Nb
Nb20 1.0000000000 0.4554022935 0.3750000000 0.2945977065  Biso 1.0 Nb
Nb21 1.0000000000 0.7945977065 0.5445977065 0.1250000000  Biso 1.0 Nb
Nb22 1.0000000000 0.2054022935 0.0445977065 0.3750000000  Biso 1.0 Nb
Nb23 1.0000000000 0.2945977065 0.9554022935 0.8750000000  Biso 1.0 Nb
Nb24 1.0000000000 0.7054022935 0.4554022935 0.6250000000  Biso 1.0 Nb
