# AFLOW.org Repositories
# Al1As1   [HEX,HEX,hP4] (STD_PRIM doi:10.
data_Al1As1
_pd_phase_name Al1As1
_cell_length_a  4.0426406394
_cell_length_b  4.0426406394
_cell_length_c  6.6698820788
_cell_angle_alpha  90.0000000000
_cell_angle_beta  90.0000000000
_cell_angle_gamma  120.0000000000
_symmetry_space_group_name_H-M  'P1'
_symmetry_Int_Tables_Number  1
loop_
_symmetry_equiv_pos_site_id
_symmetry_equiv_pos_as_xyz
  1  x,y,z
loop_
 _atom_site_label
 _atom_site_occupancy
 _atom_site_fract_x
 _atom_site_fract_y
 _atom_site_fract_z
 _atom_site_thermal_displace_type
 _atom_site_B_iso_or_equiv
 _atom_site_type_symbol
Al1 1.0000000000 0.6666583855 0.3333167710 0.0011325428  Biso 1.0 Al
Al2 1.0000000000 0.3333416145 0.6666832290 0.5011325428  Biso 1.0 Al
As3 1.0000000000 0.6666609472 0.3333218944 0.3748674572  Biso 1.0 As
As4 1.0000000000 0.3333390528 0.6666781056 0.8748674572  Biso 1.0 As
