# AFLOW.org Repositories
# Al1Au1Y1   [ORC,ORC,oP12] (STD_PRIM doi:
data_Al1Au1Y1
_pd_phase_name Al1Au1Y1
_cell_length_a  4.5008140716
_cell_length_b  7.2185345924
_cell_length_c  7.7791427186
_cell_angle_alpha  90.0000000000
_cell_angle_beta  90.0000000000
_cell_angle_gamma  90.0000000000
_symmetry_space_group_name_H-M  'P1'
_symmetry_Int_Tables_Number  1
loop_
_symmetry_equiv_pos_site_id
_symmetry_equiv_pos_as_xyz
  1  x,y,z
loop_
 _atom_site_label
 _atom_site_occupancy
 _atom_site_fract_x
 _atom_site_fract_y
 _atom_site_fract_z
 _atom_site_thermal_displace_type
 _atom_site_B_iso_or_equiv
 _atom_site_type_symbol
Al1 1.0000000000 0.2500000000 0.1836215878 0.9180874719  Biso 1.0 Al
Al2 1.0000000000 0.7500000000 0.3163784122 0.4180874719  Biso 1.0 Al
Al3 1.0000000000 0.7500000000 0.8163784122 0.0819125281  Biso 1.0 Al
Al4 1.0000000000 0.2500000000 0.6836215878 0.5819125281  Biso 1.0 Al
Au5 1.0000000000 0.2500000000 0.2915497653 0.5898581397  Biso 1.0 Au
Au6 1.0000000000 0.7500000000 0.2084502347 0.0898581397  Biso 1.0 Au
Au7 1.0000000000 0.7500000000 0.7084502347 0.4101418603  Biso 1.0 Au
Au8 1.0000000000 0.2500000000 0.7915497653 0.9101418603  Biso 1.0 Au
Y9 1.0000000000 0.2500000000 0.0066985411 0.2979916801  Biso 1.0 Y
Y10 1.0000000000 0.7500000000 0.4933014589 0.7979916801  Biso 1.0 Y
Y11 1.0000000000 0.7500000000 0.9933014589 0.7020083199  Biso 1.0 Y
Y12 1.0000000000 0.2500000000 0.5066985411 0.2020083199  Biso 1.0 Y
