# AFLOW.org Repositories
# Al1H4Th2   [BCT,BCT1,tI28] (STD_PRIM doi
data_Al1H4Th2
_pd_phase_name Al1H4Th2
_cell_length_a  6.4289699081
_cell_length_b  6.4289699081
_cell_length_c  6.4289699081
_cell_angle_alpha  105.6713866808
_cell_angle_beta  105.6713866808
_cell_angle_gamma  117.3716673465
_symmetry_space_group_name_H-M  'P1'
_symmetry_Int_Tables_Number  1
loop_
_symmetry_equiv_pos_site_id
_symmetry_equiv_pos_as_xyz
  1  x,y,z
loop_
 _atom_site_label
 _atom_site_occupancy
 _atom_site_fract_x
 _atom_site_fract_y
 _atom_site_fract_z
 _atom_site_thermal_displace_type
 _atom_site_B_iso_or_equiv
 _atom_site_type_symbol
Al1 1.0000000000 0.7500000000 0.7500000000 0.0000000000  Biso 1.0 Al
Al2 1.0000000000 0.2500000000 0.2500000000 0.0000000000  Biso 1.0 Al
H3 1.0000000000 0.7185469737 0.4785153065 0.5000000000  Biso 1.0 H
H4 1.0000000000 0.9785153065 0.2185469737 0.5000000000  Biso 1.0 H
H5 1.0000000000 0.2185469737 0.7185469737 0.2400316672  Biso 1.0 H
H6 1.0000000000 0.4785153065 0.9785153065 0.7599683328  Biso 1.0 H
H7 1.0000000000 0.5214846935 0.0214846935 0.2400316672  Biso 1.0 H
H8 1.0000000000 0.7814530263 0.2814530263 0.7599683328  Biso 1.0 H
H9 1.0000000000 0.0214846935 0.7814530263 0.5000000000  Biso 1.0 H
H10 1.0000000000 0.2814530263 0.5214846935 0.5000000000  Biso 1.0 H
Th11 1.0000000000 0.6681772228 0.8318227772 0.5000000000  Biso 1.0 Th
Th12 1.0000000000 0.3318227772 0.1681772228 0.5000000000  Biso 1.0 Th
Th13 1.0000000000 0.1681772228 0.6681772228 0.8363544456  Biso 1.0 Th
Th14 1.0000000000 0.8318227772 0.3318227772 0.1636455544  Biso 1.0 Th
