# AFLOW.org Repositories
# Al1H3   [FCC,FCC,cF64] (STD_PRIM doi:10.
data_Al1H3
_pd_phase_name Al1H3
_cell_length_a  6.3572830412
_cell_length_b  6.3572830412
_cell_length_c  6.3572830412
_cell_angle_alpha  60.0000000000
_cell_angle_beta  60.0000000000
_cell_angle_gamma  60.0000000000
_symmetry_space_group_name_H-M  'P1'
_symmetry_Int_Tables_Number  1
loop_
_symmetry_equiv_pos_site_id
_symmetry_equiv_pos_as_xyz
  1  x,y,z
loop_
 _atom_site_label
 _atom_site_occupancy
 _atom_site_fract_x
 _atom_site_fract_y
 _atom_site_fract_z
 _atom_site_thermal_displace_type
 _atom_site_B_iso_or_equiv
 _atom_site_type_symbol
Al1 1.0000000000 0.5000000000 0.5000000000 0.5000000000  Biso 1.0 Al
Al2 1.0000000000 0.0000000000 0.5000000000 0.0000000000  Biso 1.0 Al
Al3 1.0000000000 0.5000000000 0.0000000000 0.0000000000  Biso 1.0 Al
Al4 1.0000000000 0.5000000000 0.5000000000 0.0000000000  Biso 1.0 Al
H5 1.0000000000 0.4281938620 0.4281938620 0.3218061380  Biso 1.0 H
H6 1.0000000000 0.8218061380 0.8218061380 0.9281938620  Biso 1.0 H
H7 1.0000000000 0.4281938620 0.8218061380 0.3218061380  Biso 1.0 H
H8 1.0000000000 0.8218061380 0.4281938620 0.9281938620  Biso 1.0 H
H9 1.0000000000 0.8218061380 0.4281938620 0.3218061380  Biso 1.0 H
H10 1.0000000000 0.4281938620 0.8218061380 0.9281938620  Biso 1.0 H
H11 1.0000000000 0.1781938620 0.5718061380 0.0718061380  Biso 1.0 H
H12 1.0000000000 0.5718061380 0.1781938620 0.6781938620  Biso 1.0 H
H13 1.0000000000 0.1781938620 0.1781938620 0.0718061380  Biso 1.0 H
H14 1.0000000000 0.5718061380 0.5718061380 0.6781938620  Biso 1.0 H
H15 1.0000000000 0.1781938620 0.5718061380 0.6781938620  Biso 1.0 H
H16 1.0000000000 0.5718061380 0.1781938620 0.0718061380  Biso 1.0 H
