# AFLOW.org Repositories
# Al1O3Y1   [HEX,HEX,hP10] (STD_PRIM doi:1
data_Al1O3Y1
_pd_phase_name Al1O3Y1
_cell_length_a  3.4874737561
_cell_length_b  3.4874737561
_cell_length_c  11.4811562122
_cell_angle_alpha  90.0000000000
_cell_angle_beta  90.0000000000
_cell_angle_gamma  120.0000000000
_symmetry_space_group_name_H-M  'P1'
_symmetry_Int_Tables_Number  1
loop_
_symmetry_equiv_pos_site_id
_symmetry_equiv_pos_as_xyz
  1  x,y,z
loop_
 _atom_site_label
 _atom_site_occupancy
 _atom_site_fract_x
 _atom_site_fract_y
 _atom_site_fract_z
 _atom_site_thermal_displace_type
 _atom_site_B_iso_or_equiv
 _atom_site_type_symbol
Al1 1.0000000000 0.3333221424 0.6666778576 0.2500000000  Biso 1.0 Al
Al2 1.0000000000 0.6666778576 0.3333221424 0.7500000000  Biso 1.0 Al
O3 1.0000000000 0.0000000000 0.0000000000 0.2500000000  Biso 1.0 O
O4 1.0000000000 0.0000000000 0.0000000000 0.7500000000  Biso 1.0 O
O5 1.0000000000 0.3333353559 0.6666646441 0.0916897905  Biso 1.0 O
O6 1.0000000000 0.6666646441 0.3333353559 0.5916897905  Biso 1.0 O
O7 1.0000000000 0.6666646441 0.3333353559 0.9083102095  Biso 1.0 O
O8 1.0000000000 0.3333353559 0.6666646441 0.4083102095  Biso 1.0 O
Y9 1.0000000000 0.0000000000 0.0000000000 0.0000000000  Biso 1.0 Y
Y10 1.0000000000 0.0000000000 0.0000000000 0.5000000000  Biso 1.0 Y
