# AFLOW.org Repositories
# Al1Th1   [ORCC,ORCC,oS8] (STD_PRIM doi:1
data_Al1Th1
_pd_phase_name Al1Th1
_cell_length_a  6.2368624269
_cell_length_b  6.2368624269
_cell_length_c  4.2530507169
_cell_angle_alpha  90.0000000000
_cell_angle_beta  90.0000000000
_cell_angle_gamma  137.8752727616
_symmetry_space_group_name_H-M  'P1'
_symmetry_Int_Tables_Number  1
loop_
_symmetry_equiv_pos_site_id
_symmetry_equiv_pos_as_xyz
  1  x,y,z
loop_
 _atom_site_label
 _atom_site_occupancy
 _atom_site_fract_x
 _atom_site_fract_y
 _atom_site_fract_z
 _atom_site_thermal_displace_type
 _atom_site_B_iso_or_equiv
 _atom_site_type_symbol
Al1 1.0000000000 0.5698046867 0.4301953133 0.7500000000  Biso 1.0 Al
Al2 1.0000000000 0.4301953133 0.5698046867 0.2500000000  Biso 1.0 Al
Th3 1.0000000000 0.8550287107 0.1449712893 0.7500000000  Biso 1.0 Th
Th4 1.0000000000 0.1449712893 0.8550287107 0.2500000000  Biso 1.0 Th
