# AFLOW.org Repositories
# Al2Ge1La2   [ORCC,ORCC,oS20] (STD_PRIM d
data_Al2Ge1La2
_pd_phase_name Al2Ge1La2
_cell_length_a  13.7773252657
_cell_length_b  13.7773252657
_cell_length_c  4.5892043882
_cell_angle_alpha  90.0000000000
_cell_angle_beta  90.0000000000
_cell_angle_gamma  162.5617175163
_symmetry_space_group_name_H-M  'P1'
_symmetry_Int_Tables_Number  1
loop_
_symmetry_equiv_pos_site_id
_symmetry_equiv_pos_as_xyz
  1  x,y,z
loop_
 _atom_site_label
 _atom_site_occupancy
 _atom_site_fract_x
 _atom_site_fract_y
 _atom_site_fract_z
 _atom_site_thermal_displace_type
 _atom_site_B_iso_or_equiv
 _atom_site_type_symbol
Al1 1.0000000000 0.8816799105 0.1183200895 0.7500000000  Biso 1.0 Al
Al2 1.0000000000 0.1183200895 0.8816799105 0.2500000000  Biso 1.0 Al
Al3 1.0000000000 0.9768029703 0.0231970297 0.7500000000  Biso 1.0 Al
Al4 1.0000000000 0.0231970297 0.9768029703 0.2500000000  Biso 1.0 Al
Ge5 1.0000000000 0.3261917775 0.6738082225 0.7500000000  Biso 1.0 Ge
Ge6 1.0000000000 0.6738082225 0.3261917775 0.2500000000  Biso 1.0 Ge
La7 1.0000000000 0.2042565134 0.7957434866 0.7500000000  Biso 1.0 La
La8 1.0000000000 0.7957434866 0.2042565134 0.2500000000  Biso 1.0 La
La9 1.0000000000 0.5742166843 0.4257833157 0.7500000000  Biso 1.0 La
La10 1.0000000000 0.4257833157 0.5742166843 0.2500000000  Biso 1.0 La
