# AFLOW.org Repositories
# Al2La5Ru3   [BCC,BCC,cI40] (STD_PRIM doi
data_Al2La5Ru3
_pd_phase_name Al2La5Ru3
_cell_length_a  8.7093933772
_cell_length_b  8.7093933772
_cell_length_c  8.7093933772
_cell_angle_alpha  109.4712206345
_cell_angle_beta  109.4712206345
_cell_angle_gamma  109.4712206345
_symmetry_space_group_name_H-M  'P1'
_symmetry_Int_Tables_Number  1
loop_
_symmetry_equiv_pos_site_id
_symmetry_equiv_pos_as_xyz
  1  x,y,z
loop_
 _atom_site_label
 _atom_site_occupancy
 _atom_site_fract_x
 _atom_site_fract_y
 _atom_site_fract_z
 _atom_site_thermal_displace_type
 _atom_site_B_iso_or_equiv
 _atom_site_type_symbol
Al1 1.0000000000 0.0000000000 0.4112509451 0.0000000000  Biso 1.0 Al
Al2 1.0000000000 0.5887490549 0.0887490549 0.0887490549  Biso 1.0 Al
Al3 1.0000000000 0.5000000000 0.5000000000 0.4112509451  Biso 1.0 Al
Al4 1.0000000000 0.9112509451 0.0000000000 0.5000000000  Biso 1.0 Al
La5 1.0000000000 0.8130469536 0.5630469536 0.2500000000  Biso 1.0 La
La6 1.0000000000 0.6869530464 0.9369530464 0.7500000000  Biso 1.0 La
La7 1.0000000000 0.7500000000 0.3130469536 0.5630469536  Biso 1.0 La
La8 1.0000000000 0.2500000000 0.1869530464 0.9369530464  Biso 1.0 La
La9 1.0000000000 0.4369530464 0.7500000000 0.1869530464  Biso 1.0 La
La10 1.0000000000 0.0630469536 0.2500000000 0.3130469536  Biso 1.0 La
La11 1.0000000000 0.0000000000 0.7876948230 0.0000000000  Biso 1.0 La
La12 1.0000000000 0.2123051770 0.7123051770 0.7123051770  Biso 1.0 La
La13 1.0000000000 0.5000000000 0.5000000000 0.7876948230  Biso 1.0 La
La14 1.0000000000 0.2876948230 0.0000000000 0.5000000000  Biso 1.0 La
Ru15 1.0000000000 0.3840261104 0.1340261104 0.2500000000  Biso 1.0 Ru
Ru16 1.0000000000 0.1159738896 0.3659738896 0.7500000000  Biso 1.0 Ru
Ru17 1.0000000000 0.7500000000 0.8840261104 0.1340261104  Biso 1.0 Ru
Ru18 1.0000000000 0.2500000000 0.6159738896 0.3659738896  Biso 1.0 Ru
Ru19 1.0000000000 0.8659738896 0.7500000000 0.6159738896  Biso 1.0 Ru
Ru20 1.0000000000 0.6340261104 0.2500000000 0.8840261104  Biso 1.0 Ru
