# AFLOW.org Repositories
# Al2Ru1   [ORCF,ORCF1,oF24] (STD_PRIM doi
data_Al2Ru1
_pd_phase_name Al2Ru1
_cell_length_a  5.9565816980
_cell_length_b  4.9982446860
_cell_length_c  4.6540600331
_cell_angle_alpha  76.1184878027
_cell_angle_beta  54.5483976626
_cell_angle_gamma  49.3331145346
_symmetry_space_group_name_H-M  'P1'
_symmetry_Int_Tables_Number  1
loop_
_symmetry_equiv_pos_site_id
_symmetry_equiv_pos_as_xyz
  1  x,y,z
loop_
 _atom_site_label
 _atom_site_occupancy
 _atom_site_fract_x
 _atom_site_fract_y
 _atom_site_fract_z
 _atom_site_thermal_displace_type
 _atom_site_B_iso_or_equiv
 _atom_site_type_symbol
Al1 1.0000000000 0.6710255249 0.3289744751 0.6710255249  Biso 1.0 Al
Al2 1.0000000000 0.3289744751 0.6710255249 0.3289744751  Biso 1.0 Al
Al3 1.0000000000 0.0789744751 0.4210255249 0.0789744751  Biso 1.0 Al
Al4 1.0000000000 0.4210255249 0.0789744751 0.4210255249  Biso 1.0 Al
Ru5 1.0000000000 0.0000000000 0.0000000000 0.0000000000  Biso 1.0 Ru
Ru6 1.0000000000 0.7500000000 0.7500000000 0.7500000000  Biso 1.0 Ru
