# AFLOW.org Repositories
# Al3C3Y1   [HEX,HEX,hP14] (STD_PRIM doi:1
data_Al3C3Y1
_pd_phase_name Al3C3Y1
_cell_length_a  3.4360738780
_cell_length_b  3.4360738780
_cell_length_c  17.3439173042
_cell_angle_alpha  90.0000000000
_cell_angle_beta  90.0000000000
_cell_angle_gamma  120.0000000000
_symmetry_space_group_name_H-M  'P1'
_symmetry_Int_Tables_Number  1
loop_
_symmetry_equiv_pos_site_id
_symmetry_equiv_pos_as_xyz
  1  x,y,z
loop_
 _atom_site_label
 _atom_site_occupancy
 _atom_site_fract_x
 _atom_site_fract_y
 _atom_site_fract_z
 _atom_site_thermal_displace_type
 _atom_site_B_iso_or_equiv
 _atom_site_type_symbol
Al1 1.0000000000 0.3333327843 0.6666672157 0.1337346843  Biso 1.0 Al
Al2 1.0000000000 0.6666672157 0.3333327843 0.6337346843  Biso 1.0 Al
Al3 1.0000000000 0.6666672157 0.3333327843 0.8662653157  Biso 1.0 Al
Al4 1.0000000000 0.3333327843 0.6666672157 0.3662653157  Biso 1.0 Al
Al5 1.0000000000 0.3333384714 0.6666615286 0.7500000000  Biso 1.0 Al
Al6 1.0000000000 0.6666615286 0.3333384714 0.2500000000  Biso 1.0 Al
C7 1.0000000000 0.3333360817 0.6666639183 0.5933517750  Biso 1.0 C
C8 1.0000000000 0.6666639183 0.3333360817 0.0933517750  Biso 1.0 C
C9 1.0000000000 0.6666639183 0.3333360817 0.4066482250  Biso 1.0 C
C10 1.0000000000 0.3333360817 0.6666639183 0.9066482250  Biso 1.0 C
C11 1.0000000000 0.3333340353 0.6666659647 0.2500000000  Biso 1.0 C
C12 1.0000000000 0.6666659647 0.3333340353 0.7500000000  Biso 1.0 C
Y13 1.0000000000 0.0000000000 0.0000000000 0.0000000000  Biso 1.0 Y
Y14 1.0000000000 0.0000000000 0.0000000000 0.5000000000  Biso 1.0 Y
