# AFLOW.org Repositories
# Al3Os1U2   [HEX,HEX,hP12] (STD_PRIM doi:
data_Al3Os1U2
_pd_phase_name Al3Os1U2
_cell_length_a  5.5689732079
_cell_length_b  5.5689732079
_cell_length_c  8.9174436092
_cell_angle_alpha  90.0000000000
_cell_angle_beta  90.0000000000
_cell_angle_gamma  120.0000000000
_symmetry_space_group_name_H-M  'P1'
_symmetry_Int_Tables_Number  1
loop_
_symmetry_equiv_pos_site_id
_symmetry_equiv_pos_as_xyz
  1  x,y,z
loop_
 _atom_site_label
 _atom_site_occupancy
 _atom_site_fract_x
 _atom_site_fract_y
 _atom_site_fract_z
 _atom_site_thermal_displace_type
 _atom_site_B_iso_or_equiv
 _atom_site_type_symbol
Al1 1.0000000000 0.6796124816 0.8398128055 0.2500000000  Biso 1.0 Al
Al2 1.0000000000 0.1602003238 0.8398128055 0.2500000000  Biso 1.0 Al
Al3 1.0000000000 0.1601964836 0.3203929671 0.2500000000  Biso 1.0 Al
Al4 1.0000000000 0.3203875184 0.1601871945 0.7500000000  Biso 1.0 Al
Al5 1.0000000000 0.8397996762 0.1601871945 0.7500000000  Biso 1.0 Al
Al6 1.0000000000 0.8398035164 0.6796070329 0.7500000000  Biso 1.0 Al
Os7 1.0000000000 0.0000000000 0.0000000000 0.0000000000  Biso 1.0 Os
Os8 1.0000000000 0.0000000000 0.0000000000 0.5000000000  Biso 1.0 Os
U9 1.0000000000 0.6666685381 0.3333370762 0.0486957980  Biso 1.0 U
U10 1.0000000000 0.3333314619 0.6666629238 0.5486957980  Biso 1.0 U
U11 1.0000000000 0.3333314619 0.6666629238 0.9513042020  Biso 1.0 U
U12 1.0000000000 0.6666685381 0.3333370762 0.4513042020  Biso 1.0 U
