# AFLOW.org Repositories
# Al4C1O4   [ORCC,ORCC,oS36] (STD_PRIM doi
data_Al4C1O4
_pd_phase_name Al4C1O4
_cell_length_a  5.1895480137
_cell_length_b  5.1895480137
_cell_length_c  9.1741272176
_cell_angle_alpha  90.0000000000
_cell_angle_beta  90.0000000000
_cell_angle_gamma  112.2306399870
_symmetry_space_group_name_H-M  'P1'
_symmetry_Int_Tables_Number  1
loop_
_symmetry_equiv_pos_site_id
_symmetry_equiv_pos_as_xyz
  1  x,y,z
loop_
 _atom_site_label
 _atom_site_occupancy
 _atom_site_fract_x
 _atom_site_fract_y
 _atom_site_fract_z
 _atom_site_thermal_displace_type
 _atom_site_B_iso_or_equiv
 _atom_site_type_symbol
Al1 1.0000000000 0.0620399680 0.9379600320 0.7896521909  Biso 1.0 Al
Al2 1.0000000000 0.9379600320 0.0620399680 0.2896521909  Biso 1.0 Al
Al3 1.0000000000 0.3979618951 0.6020381049 0.7096561210  Biso 1.0 Al
Al4 1.0000000000 0.6020381049 0.3979618951 0.2096561210  Biso 1.0 Al
Al5 1.0000000000 0.5653559561 0.8929379301 0.0000000000  Biso 1.0 Al
Al6 1.0000000000 0.4346440439 0.1070620699 0.4996980011  Biso 1.0 Al
Al7 1.0000000000 0.8929379301 0.5653559561 0.4996980011  Biso 1.0 Al
Al8 1.0000000000 0.1070620699 0.4346440439 0.0000000000  Biso 1.0 Al
C9 1.0000000000 0.1950104107 0.8049895893 0.6152444262  Biso 1.0 C
C10 1.0000000000 0.8049895893 0.1950104107 0.1152444262  Biso 1.0 C
O11 1.0000000000 0.1955726398 0.8044273602 0.9451559566  Biso 1.0 O
O12 1.0000000000 0.8044273602 0.1955726398 0.4451559566  Biso 1.0 O
O13 1.0000000000 0.5577826131 0.4422173869 0.5891820348  Biso 1.0 O
O14 1.0000000000 0.4422173869 0.5577826131 0.0891820348  Biso 1.0 O
O15 1.0000000000 0.6902266760 0.8212627461 0.8236066341  Biso 1.0 O
O16 1.0000000000 0.3097733240 0.1787372539 0.3236066341  Biso 1.0 O
O17 1.0000000000 0.8212627461 0.6902266760 0.3236066341  Biso 1.0 O
O18 1.0000000000 0.1787372539 0.3097733240 0.8236066341  Biso 1.0 O
