# AFLOW.org Repositories
# Al4Co1La1   [ORC,ORC,oP12] (STD_PRIM doi
data_Al4Co1La1
_pd_phase_name Al4Co1La1
_cell_length_a  4.0295188761
_cell_length_b  7.0233725402
_cell_length_c  7.7089124046
_cell_angle_alpha  90.0000000000
_cell_angle_beta  90.0000000000
_cell_angle_gamma  90.0000000000
_symmetry_space_group_name_H-M  'P1'
_symmetry_Int_Tables_Number  1
loop_
_symmetry_equiv_pos_site_id
_symmetry_equiv_pos_as_xyz
  1  x,y,z
loop_
 _atom_site_label
 _atom_site_occupancy
 _atom_site_fract_x
 _atom_site_fract_y
 _atom_site_fract_z
 _atom_site_thermal_displace_type
 _atom_site_B_iso_or_equiv
 _atom_site_type_symbol
Al1 1.0000000000 0.5000000000 0.2892159791 0.0718751805  Biso 1.0 Al
Al2 1.0000000000 0.5000000000 0.2892159791 0.4281248195  Biso 1.0 Al
Al3 1.0000000000 0.5000000000 0.7107840209 0.9281248195  Biso 1.0 Al
Al4 1.0000000000 0.5000000000 0.7107840209 0.5718751805  Biso 1.0 Al
Al5 1.0000000000 0.5000000000 0.9561607989 0.2500000000  Biso 1.0 Al
Al6 1.0000000000 0.5000000000 0.0438392011 0.7500000000  Biso 1.0 Al
Al7 1.0000000000 0.0000000000 0.0000000000 0.0000000000  Biso 1.0 Al
Al8 1.0000000000 0.0000000000 0.0000000000 0.5000000000  Biso 1.0 Al
Co9 1.0000000000 0.0000000000 0.1758740271 0.2500000000  Biso 1.0 Co
Co10 1.0000000000 0.0000000000 0.8241259729 0.7500000000  Biso 1.0 Co
La11 1.0000000000 0.0000000000 0.6106442290 0.2500000000  Biso 1.0 La
La12 1.0000000000 0.0000000000 0.3893557710 0.7500000000  Biso 1.0 La
