# AFLOW.org Repositories
# Al4Ni3   [BCC,BCC,cI112] (STD_PRIM doi:1
data_Al4Ni3
_pd_phase_name Al4Ni3
_cell_length_a  9.8242755960
_cell_length_b  9.8242755960
_cell_length_c  9.8242755960
_cell_angle_alpha  109.4712206345
_cell_angle_beta  109.4712206345
_cell_angle_gamma  109.4712206345
_symmetry_space_group_name_H-M  'P1'
_symmetry_Int_Tables_Number  1
loop_
_symmetry_equiv_pos_site_id
_symmetry_equiv_pos_as_xyz
  1  x,y,z
loop_
 _atom_site_label
 _atom_site_occupancy
 _atom_site_fract_x
 _atom_site_fract_y
 _atom_site_fract_z
 _atom_site_thermal_displace_type
 _atom_site_B_iso_or_equiv
 _atom_site_type_symbol
Al1 1.0000000000 0.0000000000 0.0000000000 0.0000000000  Biso 1.0 Al
Al2 1.0000000000 0.0000000000 0.5000000000 0.5000000000  Biso 1.0 Al
Al3 1.0000000000 0.5000000000 0.5000000000 0.0000000000  Biso 1.0 Al
Al4 1.0000000000 0.5000000000 0.0000000000 0.5000000000  Biso 1.0 Al
Al5 1.0000000000 0.5000000000 0.0000000000 0.0000000000  Biso 1.0 Al
Al6 1.0000000000 0.0000000000 0.5000000000 0.0000000000  Biso 1.0 Al
Al7 1.0000000000 0.5000000000 0.5000000000 0.5000000000  Biso 1.0 Al
Al8 1.0000000000 0.0000000000 0.0000000000 0.5000000000  Biso 1.0 Al
Al9 1.0000000000 0.2419706494 0.9919706494 0.2500000000  Biso 1.0 Al
Al10 1.0000000000 0.2580293506 0.5080293506 0.7500000000  Biso 1.0 Al
Al11 1.0000000000 0.7500000000 0.7419706494 0.9919706494  Biso 1.0 Al
Al12 1.0000000000 0.2500000000 0.7580293506 0.5080293506  Biso 1.0 Al
Al13 1.0000000000 0.0080293506 0.7500000000 0.7580293506  Biso 1.0 Al
Al14 1.0000000000 0.4919706494 0.2500000000 0.7419706494  Biso 1.0 Al
Al15 1.0000000000 0.2500000000 0.9919706494 0.7419706494  Biso 1.0 Al
Al16 1.0000000000 0.7500000000 0.5080293506 0.7580293506  Biso 1.0 Al
Al17 1.0000000000 0.4919706494 0.7419706494 0.7500000000  Biso 1.0 Al
Al18 1.0000000000 0.0080293506 0.7580293506 0.2500000000  Biso 1.0 Al
Al19 1.0000000000 0.2419706494 0.7500000000 0.9919706494  Biso 1.0 Al
Al20 1.0000000000 0.2580293506 0.2500000000 0.5080293506  Biso 1.0 Al
Al21 1.0000000000 0.7580293506 0.0080293506 0.7500000000  Biso 1.0 Al
Al22 1.0000000000 0.7419706494 0.4919706494 0.2500000000  Biso 1.0 Al
Al23 1.0000000000 0.2500000000 0.2580293506 0.0080293506  Biso 1.0 Al
Al24 1.0000000000 0.7500000000 0.2419706494 0.4919706494  Biso 1.0 Al
Al25 1.0000000000 0.9919706494 0.2500000000 0.2419706494  Biso 1.0 Al
Al26 1.0000000000 0.5080293506 0.7500000000 0.2580293506  Biso 1.0 Al
Al27 1.0000000000 0.7500000000 0.0080293506 0.2580293506  Biso 1.0 Al
Al28 1.0000000000 0.2500000000 0.4919706494 0.2419706494  Biso 1.0 Al
Al29 1.0000000000 0.5080293506 0.2580293506 0.2500000000  Biso 1.0 Al
Al30 1.0000000000 0.9919706494 0.2419706494 0.7500000000  Biso 1.0 Al
Al31 1.0000000000 0.7580293506 0.2500000000 0.0080293506  Biso 1.0 Al
Al32 1.0000000000 0.7419706494 0.7500000000 0.4919706494  Biso 1.0 Al
Ni33 1.0000000000 0.4940198039 0.2440198039 0.9880396078  Biso 1.0 Ni
Ni34 1.0000000000 0.7440198039 0.2559801961 0.7500000000  Biso 1.0 Ni
Ni35 1.0000000000 0.0059801961 0.9940198039 0.7500000000  Biso 1.0 Ni
Ni36 1.0000000000 0.7559801961 0.5059801961 0.5119603922  Biso 1.0 Ni
Ni37 1.0000000000 0.0119603922 0.2559801961 0.5059801961  Biso 1.0 Ni
Ni38 1.0000000000 0.2500000000 0.5059801961 0.9940198039  Biso 1.0 Ni
Ni39 1.0000000000 0.2500000000 0.2440198039 0.2559801961  Biso 1.0 Ni
Ni40 1.0000000000 0.4880396078 0.9940198039 0.2440198039  Biso 1.0 Ni
Ni41 1.0000000000 0.4940198039 0.7500000000 0.5059801961  Biso 1.0 Ni
Ni42 1.0000000000 0.0059801961 0.5119603922 0.2559801961  Biso 1.0 Ni
Ni43 1.0000000000 0.7440198039 0.9880396078 0.9940198039  Biso 1.0 Ni
Ni44 1.0000000000 0.7559801961 0.7500000000 0.2440198039  Biso 1.0 Ni
Ni45 1.0000000000 0.5059801961 0.7559801961 0.0119603922  Biso 1.0 Ni
Ni46 1.0000000000 0.2559801961 0.7440198039 0.2500000000  Biso 1.0 Ni
Ni47 1.0000000000 0.9940198039 0.0059801961 0.2500000000  Biso 1.0 Ni
Ni48 1.0000000000 0.2440198039 0.4940198039 0.4880396078  Biso 1.0 Ni
Ni49 1.0000000000 0.9880396078 0.7440198039 0.4940198039  Biso 1.0 Ni
Ni50 1.0000000000 0.7500000000 0.4940198039 0.0059801961  Biso 1.0 Ni
Ni51 1.0000000000 0.7500000000 0.7559801961 0.7440198039  Biso 1.0 Ni
Ni52 1.0000000000 0.5119603922 0.0059801961 0.7559801961  Biso 1.0 Ni
Ni53 1.0000000000 0.5059801961 0.2500000000 0.4940198039  Biso 1.0 Ni
Ni54 1.0000000000 0.9940198039 0.4880396078 0.7440198039  Biso 1.0 Ni
Ni55 1.0000000000 0.2559801961 0.0119603922 0.0059801961  Biso 1.0 Ni
Ni56 1.0000000000 0.2440198039 0.2500000000 0.7559801961  Biso 1.0 Ni
