# AFLOW.org Repositories
# Al6Mn1   [ORCC,ORCC,oS28] (STD_PRIM doi:
data_Al6Mn1
_pd_phase_name Al6Mn1
_cell_length_a  4.9725070064
_cell_length_b  4.9725070064
_cell_length_c  8.8031577085
_cell_angle_alpha  90.0000000000
_cell_angle_beta  90.0000000000
_cell_angle_gamma  98.9241102078
_symmetry_space_group_name_H-M  'P1'
_symmetry_Int_Tables_Number  1
loop_
_symmetry_equiv_pos_site_id
_symmetry_equiv_pos_as_xyz
  1  x,y,z
loop_
 _atom_site_label
 _atom_site_occupancy
 _atom_site_fract_x
 _atom_site_fract_y
 _atom_site_fract_z
 _atom_site_thermal_displace_type
 _atom_site_B_iso_or_equiv
 _atom_site_type_symbol
Al1 1.0000000000 0.6730928023 0.3269071977 0.0000000000  Biso 1.0 Al
Al2 1.0000000000 0.3269071977 0.6730928023 0.5000000000  Biso 1.0 Al
Al3 1.0000000000 0.3269071977 0.6730928023 0.0000000000  Biso 1.0 Al
Al4 1.0000000000 0.6730928023 0.3269071977 0.5000000000  Biso 1.0 Al
Al5 1.0000000000 0.8594677848 0.8594677848 0.1001466861  Biso 1.0 Al
Al6 1.0000000000 0.1405322152 0.1405322152 0.6001466861  Biso 1.0 Al
Al7 1.0000000000 0.8594677848 0.8594677848 0.3998533139  Biso 1.0 Al
Al8 1.0000000000 0.1405322152 0.1405322152 0.8998533139  Biso 1.0 Al
Al9 1.0000000000 0.3973479749 0.0310937867 0.2500000000  Biso 1.0 Al
Al10 1.0000000000 0.6026520251 0.9689062133 0.7500000000  Biso 1.0 Al
Al11 1.0000000000 0.0310937867 0.3973479749 0.2500000000  Biso 1.0 Al
Al12 1.0000000000 0.9689062133 0.6026520251 0.7500000000  Biso 1.0 Al
Mn13 1.0000000000 0.5431629213 0.5431629213 0.2500000000  Biso 1.0 Mn
Mn14 1.0000000000 0.4568370787 0.4568370787 0.7500000000  Biso 1.0 Mn
