# AFLOW.org Repositories
# Al7Th2   [ORC,ORC,oP18] (STD_PRIM doi:10
data_Al7Th2
_pd_phase_name Al7Th2
_cell_length_a  5.5549992839
_cell_length_b  5.9465021880
_cell_length_c  11.6245128596
_cell_angle_alpha  90.0000000000
_cell_angle_beta  90.0000000000
_cell_angle_gamma  90.0000000000
_symmetry_space_group_name_H-M  'P1'
_symmetry_Int_Tables_Number  1
loop_
_symmetry_equiv_pos_site_id
_symmetry_equiv_pos_as_xyz
  1  x,y,z
loop_
 _atom_site_label
 _atom_site_occupancy
 _atom_site_fract_x
 _atom_site_fract_y
 _atom_site_fract_z
 _atom_site_thermal_displace_type
 _atom_site_B_iso_or_equiv
 _atom_site_type_symbol
Al1 1.0000000000 0.5000000000 0.0000000000 0.0000000000  Biso 1.0 Al
Al2 1.0000000000 0.5000000000 0.5000000000 0.5000000000  Biso 1.0 Al
Al3 1.0000000000 0.5000000000 0.5966568096 0.2497978043  Biso 1.0 Al
Al4 1.0000000000 0.5000000000 0.4033431904 0.7502021957  Biso 1.0 Al
Al5 1.0000000000 0.5000000000 0.0966568096 0.2502021957  Biso 1.0 Al
Al6 1.0000000000 0.5000000000 0.9033431904 0.7497978043  Biso 1.0 Al
Al7 1.0000000000 0.2419170935 0.8544973677 0.4098161866  Biso 1.0 Al
Al8 1.0000000000 0.2419170935 0.1455026323 0.5901838134  Biso 1.0 Al
Al9 1.0000000000 0.7580829065 0.3544973677 0.0901838134  Biso 1.0 Al
Al10 1.0000000000 0.7580829065 0.6455026323 0.9098161866  Biso 1.0 Al
Al11 1.0000000000 0.7580829065 0.1455026323 0.5901838134  Biso 1.0 Al
Al12 1.0000000000 0.7580829065 0.8544973677 0.4098161866  Biso 1.0 Al
Al13 1.0000000000 0.2419170935 0.6455026323 0.9098161866  Biso 1.0 Al
Al14 1.0000000000 0.2419170935 0.3544973677 0.0901838134  Biso 1.0 Al
Th15 1.0000000000 0.0000000000 0.8563870505 0.1477046668  Biso 1.0 Th
Th16 1.0000000000 0.0000000000 0.1436129495 0.8522953332  Biso 1.0 Th
Th17 1.0000000000 0.0000000000 0.3563870505 0.3522953332  Biso 1.0 Th
Th18 1.0000000000 0.0000000000 0.6436129495 0.6477046668  Biso 1.0 Th
