# AFLOW.org Repositories
# As12Os4Th1   [BCC,BCC,cI34] (STD_PRIM do
data_As12Os4Th1
_pd_phase_name As12Os4Th1
_cell_length_a  7.4832715259
_cell_length_b  7.4832715259
_cell_length_c  7.4832715259
_cell_angle_alpha  109.4712206345
_cell_angle_beta  109.4712206345
_cell_angle_gamma  109.4712206345
_symmetry_space_group_name_H-M  'P1'
_symmetry_Int_Tables_Number  1
loop_
_symmetry_equiv_pos_site_id
_symmetry_equiv_pos_as_xyz
  1  x,y,z
loop_
 _atom_site_label
 _atom_site_occupancy
 _atom_site_fract_x
 _atom_site_fract_y
 _atom_site_fract_z
 _atom_site_thermal_displace_type
 _atom_site_B_iso_or_equiv
 _atom_site_type_symbol
As1 1.0000000000 0.1981934110 0.3473826789 0.8508107321  Biso 1.0 As
As2 1.0000000000 0.4965719468 0.3473826789 0.1491892679  Biso 1.0 As
As3 1.0000000000 0.5034280532 0.6526173211 0.8508107321  Biso 1.0 As
As4 1.0000000000 0.8018065890 0.6526173211 0.1491892679  Biso 1.0 As
As5 1.0000000000 0.1491892679 0.8018065890 0.6526173211  Biso 1.0 As
As6 1.0000000000 0.8508107321 0.5034280532 0.6526173211  Biso 1.0 As
As7 1.0000000000 0.1491892679 0.4965719468 0.3473826789  Biso 1.0 As
As8 1.0000000000 0.8508107321 0.1981934110 0.3473826789  Biso 1.0 As
As9 1.0000000000 0.6526173211 0.8508107321 0.5034280532  Biso 1.0 As
As10 1.0000000000 0.6526173211 0.1491892679 0.8018065890  Biso 1.0 As
As11 1.0000000000 0.3473826789 0.8508107321 0.1981934110  Biso 1.0 As
As12 1.0000000000 0.3473826789 0.1491892679 0.4965719468  Biso 1.0 As
Os13 1.0000000000 0.0000000000 0.0000000000 0.5000000000  Biso 1.0 Os
Os14 1.0000000000 0.5000000000 0.5000000000 0.5000000000  Biso 1.0 Os
Os15 1.0000000000 0.5000000000 0.0000000000 0.0000000000  Biso 1.0 Os
Os16 1.0000000000 0.0000000000 0.5000000000 0.0000000000  Biso 1.0 Os
Th17 1.0000000000 0.0000000000 0.0000000000 0.0000000000  Biso 1.0 Th
