# AFLOW.org Repositories
# As1C1Nb2   [HEX,HEX,hP8] (STD_PRIM doi:1
data_As1C1Nb2
_pd_phase_name As1C1Nb2
_cell_length_a  3.3486630069
_cell_length_b  3.3486630069
_cell_length_c  12.0318815013
_cell_angle_alpha  90.0000000000
_cell_angle_beta  90.0000000000
_cell_angle_gamma  120.0000000000
_symmetry_space_group_name_H-M  'P1'
_symmetry_Int_Tables_Number  1
loop_
_symmetry_equiv_pos_site_id
_symmetry_equiv_pos_as_xyz
  1  x,y,z
loop_
 _atom_site_label
 _atom_site_occupancy
 _atom_site_fract_x
 _atom_site_fract_y
 _atom_site_fract_z
 _atom_site_thermal_displace_type
 _atom_site_B_iso_or_equiv
 _atom_site_type_symbol
As1 1.0000000000 0.6666772719 0.3333227281 0.7500000000  Biso 1.0 As
As2 1.0000000000 0.3333227281 0.6666772719 0.2500000000  Biso 1.0 As
C3 1.0000000000 0.0000000000 0.0000000000 0.0000000000  Biso 1.0 C
C4 1.0000000000 0.0000000000 0.0000000000 0.5000000000  Biso 1.0 C
Nb5 1.0000000000 0.6666740035 0.3333259965 0.0940751688  Biso 1.0 Nb
Nb6 1.0000000000 0.3333259965 0.6666740035 0.5940751688  Biso 1.0 Nb
Nb7 1.0000000000 0.3333259965 0.6666740035 0.9059248312  Biso 1.0 Nb
Nb8 1.0000000000 0.6666740035 0.3333259965 0.4059248312  Biso 1.0 Nb
