# AFLOW.org Repositories
# As1Ge1   [BCT,BCT2,tI4] (STD_PRIM doi:10
data_As1Ge1
_pd_phase_name As1Ge1
_cell_length_a  4.0004983465
_cell_length_b  4.0004983465
_cell_length_c  4.0004983465
_cell_angle_alpha  124.3689693883
_cell_angle_beta  124.3689693883
_cell_angle_gamma  82.5858730560
_symmetry_space_group_name_H-M  'P1'
_symmetry_Int_Tables_Number  1
loop_
_symmetry_equiv_pos_site_id
_symmetry_equiv_pos_as_xyz
  1  x,y,z
loop_
 _atom_site_label
 _atom_site_occupancy
 _atom_site_fract_x
 _atom_site_fract_y
 _atom_site_fract_z
 _atom_site_thermal_displace_type
 _atom_site_B_iso_or_equiv
 _atom_site_type_symbol
As1 1.0000000000 0.4174516045 0.4174516045 0.0000000000  Biso 1.0 As
Ge2 1.0000000000 0.9965483955 0.9965483955 0.0000000000  Biso 1.0 Ge
