# AFLOW.org Repositories
# As2Cu1Y1   [TET,TET,tP8] (STD_PRIM doi:1
data_As2Cu1Y1
_pd_phase_name As2Cu1Y1
_cell_length_a  3.9050545006
_cell_length_b  3.9050545006
_cell_length_c  9.9330320607
_cell_angle_alpha  90.0000000000
_cell_angle_beta  90.0000000000
_cell_angle_gamma  90.0000000000
_symmetry_space_group_name_H-M  'P1'
_symmetry_Int_Tables_Number  1
loop_
_symmetry_equiv_pos_site_id
_symmetry_equiv_pos_as_xyz
  1  x,y,z
loop_
 _atom_site_label
 _atom_site_occupancy
 _atom_site_fract_x
 _atom_site_fract_y
 _atom_site_fract_z
 _atom_site_thermal_displace_type
 _atom_site_B_iso_or_equiv
 _atom_site_type_symbol
As1 1.0000000000 0.7500000000 0.2500000000 0.0000000000  Biso 1.0 As
As2 1.0000000000 0.2500000000 0.7500000000 0.0000000000  Biso 1.0 As
As3 1.0000000000 0.7500000000 0.7500000000 0.3394427065  Biso 1.0 As
As4 1.0000000000 0.2500000000 0.2500000000 0.6605572935  Biso 1.0 As
Cu5 1.0000000000 0.7500000000 0.2500000000 0.5000000000  Biso 1.0 Cu
Cu6 1.0000000000 0.2500000000 0.7500000000 0.5000000000  Biso 1.0 Cu
Y7 1.0000000000 0.2500000000 0.2500000000 0.2364976139  Biso 1.0 Y
Y8 1.0000000000 0.7500000000 0.7500000000 0.7635023861  Biso 1.0 Y
