# AFLOW.org Repositories
# Au1Ca3   [ORC,ORC,oP16] (STD_PRIM doi:10
data_Au1Ca3
_pd_phase_name Au1Ca3
_cell_length_a  6.8324155755
_cell_length_b  7.8310947420
_cell_length_c  9.9766518028
_cell_angle_alpha  90.0000000000
_cell_angle_beta  90.0000000000
_cell_angle_gamma  90.0000000000
_symmetry_space_group_name_H-M  'P1'
_symmetry_Int_Tables_Number  1
loop_
_symmetry_equiv_pos_site_id
_symmetry_equiv_pos_as_xyz
  1  x,y,z
loop_
 _atom_site_label
 _atom_site_occupancy
 _atom_site_fract_x
 _atom_site_fract_y
 _atom_site_fract_z
 _atom_site_thermal_displace_type
 _atom_site_B_iso_or_equiv
 _atom_site_type_symbol
Au1 1.0000000000 0.0514246863 0.3784812358 0.7500000000  Biso 1.0 Au
Au2 1.0000000000 0.5514246863 0.1215187642 0.2500000000  Biso 1.0 Au
Au3 1.0000000000 0.9485753137 0.6215187642 0.2500000000  Biso 1.0 Au
Au4 1.0000000000 0.4485753137 0.8784812358 0.7500000000  Biso 1.0 Au
Ca5 1.0000000000 0.8553381037 0.0360646946 0.7500000000  Biso 1.0 Ca
Ca6 1.0000000000 0.3553381037 0.4639353054 0.2500000000  Biso 1.0 Ca
Ca7 1.0000000000 0.1446618963 0.9639353054 0.2500000000  Biso 1.0 Ca
Ca8 1.0000000000 0.6446618963 0.5360646946 0.7500000000  Biso 1.0 Ca
Ca9 1.0000000000 0.3369854659 0.1759220918 0.9363609085  Biso 1.0 Ca
Ca10 1.0000000000 0.8369854659 0.3240779082 0.0636390915  Biso 1.0 Ca
Ca11 1.0000000000 0.6630145341 0.8240779082 0.4363609085  Biso 1.0 Ca
Ca12 1.0000000000 0.1630145341 0.6759220918 0.5636390915  Biso 1.0 Ca
Ca13 1.0000000000 0.6630145341 0.8240779082 0.0636390915  Biso 1.0 Ca
Ca14 1.0000000000 0.1630145341 0.6759220918 0.9363609085  Biso 1.0 Ca
Ca15 1.0000000000 0.3369854659 0.1759220918 0.5636390915  Biso 1.0 Ca
Ca16 1.0000000000 0.8369854659 0.3240779082 0.4363609085  Biso 1.0 Ca
