# AFLOW.org Repositories
# Au1Ca1In1   [ORC,ORC,oP12] (STD_PRIM doi
data_Au1Ca1In1
_pd_phase_name Au1Ca1In1
_cell_length_a  4.6370587028
_cell_length_b  7.4189450939
_cell_length_c  8.5803759993
_cell_angle_alpha  90.0000000000
_cell_angle_beta  90.0000000000
_cell_angle_gamma  90.0000000000
_symmetry_space_group_name_H-M  'P1'
_symmetry_Int_Tables_Number  1
loop_
_symmetry_equiv_pos_site_id
_symmetry_equiv_pos_as_xyz
  1  x,y,z
loop_
 _atom_site_label
 _atom_site_occupancy
 _atom_site_fract_x
 _atom_site_fract_y
 _atom_site_fract_z
 _atom_site_thermal_displace_type
 _atom_site_B_iso_or_equiv
 _atom_site_type_symbol
Au1 1.0000000000 0.2500000000 0.2660821407 0.6221678371  Biso 1.0 Au
Au2 1.0000000000 0.7500000000 0.2339178593 0.1221678371  Biso 1.0 Au
Au3 1.0000000000 0.7500000000 0.7339178593 0.3778321629  Biso 1.0 Au
Au4 1.0000000000 0.2500000000 0.7660821407 0.8778321629  Biso 1.0 Au
Ca5 1.0000000000 0.2500000000 0.0277231460 0.3159622889  Biso 1.0 Ca
Ca6 1.0000000000 0.7500000000 0.4722768540 0.8159622889  Biso 1.0 Ca
Ca7 1.0000000000 0.7500000000 0.9722768540 0.6840377111  Biso 1.0 Ca
Ca8 1.0000000000 0.2500000000 0.5277231460 0.1840377111  Biso 1.0 Ca
In9 1.0000000000 0.2500000000 0.1560623544 0.9382573924  Biso 1.0 In
In10 1.0000000000 0.7500000000 0.3439376456 0.4382573924  Biso 1.0 In
In11 1.0000000000 0.7500000000 0.8439376456 0.0617426076  Biso 1.0 In
In12 1.0000000000 0.2500000000 0.6560623544 0.5617426076  Biso 1.0 In
