# AFLOW.org Repositories
# Au1Ge1Y1   [HEX,HEX,hP6] (STD_PRIM doi:1
data_Au1Ge1Y1
_pd_phase_name Au1Ge1Y1
_cell_length_a  4.4755229041
_cell_length_b  4.4755229041
_cell_length_c  7.3706920718
_cell_angle_alpha  90.0000000000
_cell_angle_beta  90.0000000000
_cell_angle_gamma  120.0000000000
_symmetry_space_group_name_H-M  'P1'
_symmetry_Int_Tables_Number  1
loop_
_symmetry_equiv_pos_site_id
_symmetry_equiv_pos_as_xyz
  1  x,y,z
loop_
 _atom_site_label
 _atom_site_occupancy
 _atom_site_fract_x
 _atom_site_fract_y
 _atom_site_fract_z
 _atom_site_thermal_displace_type
 _atom_site_B_iso_or_equiv
 _atom_site_type_symbol
Au1 1.0000000000 0.3333161890 0.6666838110 0.2500214053  Biso 1.0 Au
Au2 1.0000000000 0.6666838110 0.3333161890 0.7500214053  Biso 1.0 Au
Ge3 1.0000000000 0.3333165436 0.6666834564 0.8250827312  Biso 1.0 Ge
Ge4 1.0000000000 0.6666834564 0.3333165436 0.3250827312  Biso 1.0 Ge
Y5 1.0000000000 0.0000000000 0.0000000000 0.0339958635  Biso 1.0 Y
Y6 1.0000000000 0.0000000000 0.0000000000 0.5339958635  Biso 1.0 Y
