# AFLOW.org Repositories
# Au1In2Na3   [FCC,FCC,cF96] (STD_PRIM doi
data_Au1In2Na3
_pd_phase_name Au1In2Na3
_cell_length_a  9.6767152607
_cell_length_b  9.6767152607
_cell_length_c  9.6767152607
_cell_angle_alpha  60.0000000000
_cell_angle_beta  60.0000000000
_cell_angle_gamma  60.0000000000
_symmetry_space_group_name_H-M  'P1'
_symmetry_Int_Tables_Number  1
loop_
_symmetry_equiv_pos_site_id
_symmetry_equiv_pos_as_xyz
  1  x,y,z
loop_
 _atom_site_label
 _atom_site_occupancy
 _atom_site_fract_x
 _atom_site_fract_y
 _atom_site_fract_z
 _atom_site_thermal_displace_type
 _atom_site_B_iso_or_equiv
 _atom_site_type_symbol
Au1 1.0000000000 0.0000000000 0.0000000000 0.0000000000  Biso 1.0 Au
Au2 1.0000000000 0.5000000000 0.5000000000 0.0000000000  Biso 1.0 Au
Au3 1.0000000000 0.5000000000 0.0000000000 0.0000000000  Biso 1.0 Au
Au4 1.0000000000 0.5000000000 0.0000000000 0.5000000000  Biso 1.0 Au
In5 1.0000000000 0.6243593776 0.7918802075 0.7918802075  Biso 1.0 In
In6 1.0000000000 0.2918802075 0.1243593776 0.7918802075  Biso 1.0 In
In7 1.0000000000 0.2918802075 0.7918802075 0.7918802075  Biso 1.0 In
In8 1.0000000000 0.2918802075 0.7918802075 0.1243593776  Biso 1.0 In
In9 1.0000000000 0.7081197925 0.8756406224 0.2081197925  Biso 1.0 In
In10 1.0000000000 0.3756406224 0.2081197925 0.2081197925  Biso 1.0 In
In11 1.0000000000 0.7081197925 0.2081197925 0.2081197925  Biso 1.0 In
In12 1.0000000000 0.7081197925 0.2081197925 0.8756406224  Biso 1.0 In
Na13 1.0000000000 0.6726229047 0.5773770953 0.1726229047  Biso 1.0 Na
Na14 1.0000000000 0.0773770953 0.1726229047 0.5773770953  Biso 1.0 Na
Na15 1.0000000000 0.6726229047 0.5773770953 0.5773770953  Biso 1.0 Na
Na16 1.0000000000 0.0773770953 0.1726229047 0.1726229047  Biso 1.0 Na
Na17 1.0000000000 0.6726229047 0.1726229047 0.5773770953  Biso 1.0 Na
Na18 1.0000000000 0.0773770953 0.5773770953 0.1726229047  Biso 1.0 Na
Na19 1.0000000000 0.9226229047 0.8273770953 0.8273770953  Biso 1.0 Na
Na20 1.0000000000 0.3273770953 0.4226229047 0.4226229047  Biso 1.0 Na
Na21 1.0000000000 0.9226229047 0.8273770953 0.4226229047  Biso 1.0 Na
Na22 1.0000000000 0.3273770953 0.4226229047 0.8273770953  Biso 1.0 Na
Na23 1.0000000000 0.3273770953 0.8273770953 0.4226229047  Biso 1.0 Na
Na24 1.0000000000 0.9226229047 0.4226229047 0.8273770953  Biso 1.0 Na
