# AFLOW.org Repositories
# Au1Sb2   [CUB,CUB,cP12] (STD_PRIM doi:10
data_Au1Sb2
_pd_phase_name Au1Sb2
_cell_length_a  6.7761903788
_cell_length_b  6.7761903788
_cell_length_c  6.7761903788
_cell_angle_alpha  90.0000000000
_cell_angle_beta  90.0000000000
_cell_angle_gamma  90.0000000000
_symmetry_space_group_name_H-M  'P1'
_symmetry_Int_Tables_Number  1
loop_
_symmetry_equiv_pos_site_id
_symmetry_equiv_pos_as_xyz
  1  x,y,z
loop_
 _atom_site_label
 _atom_site_occupancy
 _atom_site_fract_x
 _atom_site_fract_y
 _atom_site_fract_z
 _atom_site_thermal_displace_type
 _atom_site_B_iso_or_equiv
 _atom_site_type_symbol
Au1 1.0000000000 0.0000000000 0.0000000000 0.0000000000  Biso 1.0 Au
Au2 1.0000000000 0.5000000000 0.0000000000 0.5000000000  Biso 1.0 Au
Au3 1.0000000000 0.0000000000 0.5000000000 0.5000000000  Biso 1.0 Au
Au4 1.0000000000 0.5000000000 0.5000000000 0.0000000000  Biso 1.0 Au
Sb5 1.0000000000 0.6241972059 0.6241972059 0.3758027941  Biso 1.0 Sb
Sb6 1.0000000000 0.8758027941 0.3758027941 0.8758027941  Biso 1.0 Sb
Sb7 1.0000000000 0.3758027941 0.1241972059 0.1241972059  Biso 1.0 Sb
Sb8 1.0000000000 0.1241972059 0.8758027941 0.6241972059  Biso 1.0 Sb
Sb9 1.0000000000 0.3758027941 0.3758027941 0.6241972059  Biso 1.0 Sb
Sb10 1.0000000000 0.1241972059 0.6241972059 0.1241972059  Biso 1.0 Sb
Sb11 1.0000000000 0.6241972059 0.8758027941 0.8758027941  Biso 1.0 Sb
Sb12 1.0000000000 0.8758027941 0.1241972059 0.3758027941  Biso 1.0 Sb
