# AFLOW.org Repositories
# Au2Br6Cs2   [BCT,BCT2,tI20] (STD_PRIM do
data_Au2Br6Cs2
_pd_phase_name Au2Br6Cs2
_cell_length_a  8.0783394214
_cell_length_b  8.0783394214
_cell_length_c  8.0783394214
_cell_angle_alpha  121.6684077230
_cell_angle_beta  121.6684077230
_cell_angle_gamma  87.1337357064
_symmetry_space_group_name_H-M  'P1'
_symmetry_Int_Tables_Number  1
loop_
_symmetry_equiv_pos_site_id
_symmetry_equiv_pos_as_xyz
  1  x,y,z
loop_
 _atom_site_label
 _atom_site_occupancy
 _atom_site_fract_x
 _atom_site_fract_y
 _atom_site_fract_z
 _atom_site_thermal_displace_type
 _atom_site_B_iso_or_equiv
 _atom_site_type_symbol
Au1 1.0000000000 0.0000000000 0.0000000000 0.0000000000  Biso 1.0 Au
Au2 1.0000000000 0.5000000000 0.5000000000 0.0000000000  Biso 1.0 Au
Br3 1.0000000000 0.2252805787 0.7747194213 0.0000000000  Biso 1.0 Br
Br4 1.0000000000 0.7747194213 0.2252805787 0.0000000000  Biso 1.0 Br
Br5 1.0000000000 0.7747194213 0.7747194213 0.5494388427  Biso 1.0 Br
Br6 1.0000000000 0.2252805787 0.2252805787 0.4505611573  Biso 1.0 Br
Br7 1.0000000000 0.7104909884 0.7104909884 0.0000000000  Biso 1.0 Br
Br8 1.0000000000 0.2895090116 0.2895090116 0.0000000000  Biso 1.0 Br
Cs9 1.0000000000 0.2500000000 0.7500000000 0.5000000000  Biso 1.0 Cs
Cs10 1.0000000000 0.7500000000 0.2500000000 0.5000000000  Biso 1.0 Cs
