# AFLOW.org Repositories
# Au2Ca1   [ORCI,ORCI,oI12] (STD_PRIM doi:
data_Au2Ca1
_pd_phase_name Au2Ca1
_cell_length_a  5.9463766525
_cell_length_b  5.9463766525
_cell_length_c  5.9463766525
_cell_angle_alpha  133.8058508295
_cell_angle_beta  106.1740854141
_cell_angle_gamma  91.6747869784
_symmetry_space_group_name_H-M  'P1'
_symmetry_Int_Tables_Number  1
loop_
_symmetry_equiv_pos_site_id
_symmetry_equiv_pos_as_xyz
  1  x,y,z
loop_
 _atom_site_label
 _atom_site_occupancy
 _atom_site_fract_x
 _atom_site_fract_y
 _atom_site_fract_z
 _atom_site_thermal_displace_type
 _atom_site_B_iso_or_equiv
 _atom_site_type_symbol
Au1 1.0000000000 0.1248605079 0.1622119207 0.9626485872  Biso 1.0 Au
Au2 1.0000000000 0.6995633335 0.1622119207 0.5373514128  Biso 1.0 Au
Au3 1.0000000000 0.3004366665 0.8377880793 0.4626485872  Biso 1.0 Au
Au4 1.0000000000 0.8751394921 0.8377880793 0.0373514128  Biso 1.0 Au
Ca5 1.0000000000 0.2878124831 0.5378124831 0.7500000000  Biso 1.0 Ca
Ca6 1.0000000000 0.7121875169 0.4621875169 0.2500000000  Biso 1.0 Ca
