# AFLOW.org Repositories
# Au2In2Sr1   [ORC,ORC,oP20] (STD_PRIM doi
data_Au2In2Sr1
_pd_phase_name Au2In2Sr1
_cell_length_a  4.6736870788
_cell_length_b  8.6827868383
_cell_length_c  12.4515718881
_cell_angle_alpha  90.0000000000
_cell_angle_beta  90.0000000000
_cell_angle_gamma  90.0000000000
_symmetry_space_group_name_H-M  'P1'
_symmetry_Int_Tables_Number  1
loop_
_symmetry_equiv_pos_site_id
_symmetry_equiv_pos_as_xyz
  1  x,y,z
loop_
 _atom_site_label
 _atom_site_occupancy
 _atom_site_fract_x
 _atom_site_fract_y
 _atom_site_fract_z
 _atom_site_thermal_displace_type
 _atom_site_B_iso_or_equiv
 _atom_site_type_symbol
Au1 1.0000000000 0.2500000000 0.0958860432 0.9860963143  Biso 1.0 Au
Au2 1.0000000000 0.7500000000 0.4041139568 0.4860963143  Biso 1.0 Au
Au3 1.0000000000 0.7500000000 0.9041139568 0.0139036857  Biso 1.0 Au
Au4 1.0000000000 0.2500000000 0.5958860432 0.5139036857  Biso 1.0 Au
Au5 1.0000000000 0.2500000000 0.0090981265 0.3284877976  Biso 1.0 Au
Au6 1.0000000000 0.7500000000 0.4909018735 0.8284877976  Biso 1.0 Au
Au7 1.0000000000 0.7500000000 0.9909018735 0.6715122024  Biso 1.0 Au
Au8 1.0000000000 0.2500000000 0.5090981265 0.1715122024  Biso 1.0 Au
In9 1.0000000000 0.2500000000 0.4065213663 0.9472449162  Biso 1.0 In
In10 1.0000000000 0.7500000000 0.0934786337 0.4472449162  Biso 1.0 In
In11 1.0000000000 0.7500000000 0.5934786337 0.0527550838  Biso 1.0 In
In12 1.0000000000 0.2500000000 0.9065213663 0.5527550838  Biso 1.0 In
In13 1.0000000000 0.2500000000 0.3451566457 0.3616074903  Biso 1.0 In
In14 1.0000000000 0.7500000000 0.1548433543 0.8616074903  Biso 1.0 In
In15 1.0000000000 0.7500000000 0.6548433543 0.6383925097  Biso 1.0 In
In16 1.0000000000 0.2500000000 0.8451566457 0.1383925097  Biso 1.0 In
Sr17 1.0000000000 0.2500000000 0.2904221905 0.6666534432  Biso 1.0 Sr
Sr18 1.0000000000 0.7500000000 0.2095778095 0.1666534432  Biso 1.0 Sr
Sr19 1.0000000000 0.7500000000 0.7095778095 0.3333465568  Biso 1.0 Sr
Sr20 1.0000000000 0.2500000000 0.7904221905 0.8333465568  Biso 1.0 Sr
