# AFLOW.org Repositories
# Au4Li15   [BCC,BCC,cI76] (STD_PRIM doi:1
data_Au4Li15
_pd_phase_name Au4Li15
_cell_length_a  9.3857930316
_cell_length_b  9.3857930316
_cell_length_c  9.3857930316
_cell_angle_alpha  109.4712206345
_cell_angle_beta  109.4712206345
_cell_angle_gamma  109.4712206345
_symmetry_space_group_name_H-M  'P1'
_symmetry_Int_Tables_Number  1
loop_
_symmetry_equiv_pos_site_id
_symmetry_equiv_pos_as_xyz
  1  x,y,z
loop_
 _atom_site_label
 _atom_site_occupancy
 _atom_site_fract_x
 _atom_site_fract_y
 _atom_site_fract_z
 _atom_site_thermal_displace_type
 _atom_site_B_iso_or_equiv
 _atom_site_type_symbol
Au1 1.0000000000 0.5892821074 0.0000000000 0.0000000000  Biso 1.0 Au
Au2 1.0000000000 0.9107178926 0.9107178926 0.4107178926  Biso 1.0 Au
Au3 1.0000000000 0.5000000000 0.5892821074 0.5000000000  Biso 1.0 Au
Au4 1.0000000000 0.0000000000 0.5000000000 0.0892821074  Biso 1.0 Au
Au5 1.0000000000 0.0892821074 0.0000000000 0.0000000000  Biso 1.0 Au
Au6 1.0000000000 0.4107178926 0.4107178926 0.9107178926  Biso 1.0 Au
Au7 1.0000000000 0.0000000000 0.5000000000 0.5892821074  Biso 1.0 Au
Au8 1.0000000000 0.5000000000 0.0892821074 0.5000000000  Biso 1.0 Au
Li9 1.0000000000 0.6250000000 0.2500000000 0.8750000000  Biso 1.0 Li
Li10 1.0000000000 0.8750000000 0.7500000000 0.6250000000  Biso 1.0 Li
Li11 1.0000000000 0.3750000000 0.6250000000 0.7500000000  Biso 1.0 Li
Li12 1.0000000000 0.1250000000 0.8750000000 0.2500000000  Biso 1.0 Li
Li13 1.0000000000 0.7500000000 0.1250000000 0.3750000000  Biso 1.0 Li
Li14 1.0000000000 0.2500000000 0.3750000000 0.1250000000  Biso 1.0 Li
Li15 1.0000000000 0.7256672292 0.8038776711 0.8432026135  Biso 1.0 Li
Li16 1.0000000000 0.7743327708 0.6175353844 0.0782104420  Biso 1.0 Li
Li17 1.0000000000 0.4606750576 0.8824646156 0.6567973865  Biso 1.0 Li
Li18 1.0000000000 0.0393249424 0.6961223289 0.4217895580  Biso 1.0 Li
Li19 1.0000000000 0.9217895580 0.0393249424 0.1961223289  Biso 1.0 Li
Li20 1.0000000000 0.1567973865 0.4606750576 0.3824646156  Biso 1.0 Li
Li21 1.0000000000 0.5782104420 0.7743327708 0.1175353844  Biso 1.0 Li
Li22 1.0000000000 0.3432026135 0.7256672292 0.3038776711  Biso 1.0 Li
Li23 1.0000000000 0.8824646156 0.1567973865 0.9606750576  Biso 1.0 Li
Li24 1.0000000000 0.6961223289 0.9217895580 0.5393249424  Biso 1.0 Li
Li25 1.0000000000 0.8038776711 0.3432026135 0.2256672292  Biso 1.0 Li
Li26 1.0000000000 0.6175353844 0.5782104420 0.2743327708  Biso 1.0 Li
Li27 1.0000000000 0.2256672292 0.8432026135 0.8038776711  Biso 1.0 Li
Li28 1.0000000000 0.2743327708 0.0782104420 0.6175353844  Biso 1.0 Li
Li29 1.0000000000 0.9606750576 0.6567973865 0.8824646156  Biso 1.0 Li
Li30 1.0000000000 0.5393249424 0.4217895580 0.6961223289  Biso 1.0 Li
Li31 1.0000000000 0.4217895580 0.1961223289 0.0393249424  Biso 1.0 Li
Li32 1.0000000000 0.6567973865 0.3824646156 0.4606750576  Biso 1.0 Li
Li33 1.0000000000 0.0782104420 0.1175353844 0.7743327708  Biso 1.0 Li
Li34 1.0000000000 0.8432026135 0.3038776711 0.7256672292  Biso 1.0 Li
Li35 1.0000000000 0.3824646156 0.9606750576 0.1567973865  Biso 1.0 Li
Li36 1.0000000000 0.1961223289 0.5393249424 0.9217895580  Biso 1.0 Li
Li37 1.0000000000 0.3038776711 0.2256672292 0.3432026135  Biso 1.0 Li
Li38 1.0000000000 0.1175353844 0.2743327708 0.5782104420  Biso 1.0 Li
