# AFLOW.org Repositories
# Au7I1P10   [HEX,HEX,hP18] (STD_PRIM doi:
data_Au7I1P10
_pd_phase_name Au7I1P10
_cell_length_a  6.2800101952
_cell_length_b  6.2800101952
_cell_length_c  11.2926285633
_cell_angle_alpha  90.0000000000
_cell_angle_beta  90.0000000000
_cell_angle_gamma  120.0000000000
_symmetry_space_group_name_H-M  'P1'
_symmetry_Int_Tables_Number  1
loop_
_symmetry_equiv_pos_site_id
_symmetry_equiv_pos_as_xyz
  1  x,y,z
loop_
 _atom_site_label
 _atom_site_occupancy
 _atom_site_fract_x
 _atom_site_fract_y
 _atom_site_fract_z
 _atom_site_thermal_displace_type
 _atom_site_B_iso_or_equiv
 _atom_site_type_symbol
Au1 1.0000000000 0.0000000000 0.5000000000 0.0000000000  Biso 1.0 Au
Au2 1.0000000000 0.5000000000 0.5000000000 0.0000000000  Biso 1.0 Au
Au3 1.0000000000 0.5000000000 0.0000000000 0.0000000000  Biso 1.0 Au
Au4 1.0000000000 0.6666193077 0.3333065397 0.4999999995  Biso 1.0 Au
Au5 1.0000000000 0.3333806923 0.6666934603 0.5000000005  Biso 1.0 Au
Au6 1.0000000000 0.0000000000 0.0000000000 0.2257220198  Biso 1.0 Au
Au7 1.0000000000 0.0000000000 0.0000000000 0.7742779802  Biso 1.0 Au
I8 1.0000000000 0.0000000000 0.0000000000 0.5000000000  Biso 1.0 I
P9 1.0000000000 0.6666442928 0.3333280379 0.2916503733  Biso 1.0 P
P10 1.0000000000 0.6666756076 0.3333291253 0.7083495611  Biso 1.0 P
P11 1.0000000000 0.3333557072 0.6666719621 0.7083496267  Biso 1.0 P
P12 1.0000000000 0.3333243924 0.6666708747 0.2916504389  Biso 1.0 P
P13 1.0000000000 0.0000000000 0.6220825993 0.1993547547  Biso 1.0 P
P14 1.0000000000 0.3779155295 0.3779155295 0.1993506950  Biso 1.0 P
P15 1.0000000000 0.6220544173 0.0000000000 0.1993519545  Biso 1.0 P
P16 1.0000000000 0.6220844705 0.6220844705 0.8006493050  Biso 1.0 P
P17 1.0000000000 0.0000000000 0.3779174007 0.8006452453  Biso 1.0 P
P18 1.0000000000 0.3779455827 0.0000000000 0.8006480455  Biso 1.0 P
