# AFLOW.org Repositories
# B1Li3N2   [TET,TET,tP12] (STD_PRIM doi:1
data_B1Li3N2
_pd_phase_name B1Li3N2
_cell_length_a  4.6873841640
_cell_length_b  4.6873841640
_cell_length_c  5.2139149924
_cell_angle_alpha  90.0000000000
_cell_angle_beta  90.0000000000
_cell_angle_gamma  90.0000000000
_symmetry_space_group_name_H-M  'P1'
_symmetry_Int_Tables_Number  1
loop_
_symmetry_equiv_pos_site_id
_symmetry_equiv_pos_as_xyz
  1  x,y,z
loop_
 _atom_site_label
 _atom_site_occupancy
 _atom_site_fract_x
 _atom_site_fract_y
 _atom_site_fract_z
 _atom_site_thermal_displace_type
 _atom_site_B_iso_or_equiv
 _atom_site_type_symbol
B1 1.0000000000 0.0000000000 0.0000000000 0.0000000000  Biso 1.0 B
B2 1.0000000000 0.5000000000 0.5000000000 0.5000000000  Biso 1.0 B
Li3 1.0000000000 0.0000000000 0.0000000000 0.5000000000  Biso 1.0 Li
Li4 1.0000000000 0.5000000000 0.5000000000 0.0000000000  Biso 1.0 Li
Li5 1.0000000000 0.0000000000 0.5000000000 0.2500000000  Biso 1.0 Li
Li6 1.0000000000 0.0000000000 0.5000000000 0.7500000000  Biso 1.0 Li
Li7 1.0000000000 0.5000000000 0.0000000000 0.2500000000  Biso 1.0 Li
Li8 1.0000000000 0.5000000000 0.0000000000 0.7500000000  Biso 1.0 Li
N9 1.0000000000 0.2033165816 0.2033165816 0.0000000000  Biso 1.0 N
N10 1.0000000000 0.7966834184 0.7966834184 0.0000000000  Biso 1.0 N
N11 1.0000000000 0.2966834184 0.7033165816 0.5000000000  Biso 1.0 N
N12 1.0000000000 0.7033165816 0.2966834184 0.5000000000  Biso 1.0 N
