# AFLOW.org Repositories
# B1Mg8Pt4   [FCC,FCC,cF104] (STD_PRIM doi
data_B1Mg8Pt4
_pd_phase_name B1Mg8Pt4
_cell_length_a  8.6841768838
_cell_length_b  8.6841768838
_cell_length_c  8.6841768838
_cell_angle_alpha  60.0000000000
_cell_angle_beta  60.0000000000
_cell_angle_gamma  60.0000000000
_symmetry_space_group_name_H-M  'P1'
_symmetry_Int_Tables_Number  1
loop_
_symmetry_equiv_pos_site_id
_symmetry_equiv_pos_as_xyz
  1  x,y,z
loop_
 _atom_site_label
 _atom_site_occupancy
 _atom_site_fract_x
 _atom_site_fract_y
 _atom_site_fract_z
 _atom_site_thermal_displace_type
 _atom_site_B_iso_or_equiv
 _atom_site_type_symbol
B1 1.0000000000 0.3750000000 0.3750000000 0.3750000000  Biso 1.0 B
B2 1.0000000000 0.6250000000 0.6250000000 0.6250000000  Biso 1.0 B
Mg3 1.0000000000 0.5000000000 0.5000000000 0.5000000000  Biso 1.0 Mg
Mg4 1.0000000000 0.5000000000 0.5000000000 0.0000000000  Biso 1.0 Mg
Mg5 1.0000000000 0.5000000000 0.0000000000 0.5000000000  Biso 1.0 Mg
Mg6 1.0000000000 0.0000000000 0.5000000000 0.5000000000  Biso 1.0 Mg
Mg7 1.0000000000 0.9260990833 0.3239009167 0.3239009167  Biso 1.0 Mg
Mg8 1.0000000000 0.3239009167 0.9260990833 0.9260990833  Biso 1.0 Mg
Mg9 1.0000000000 0.3239009167 0.9260990833 0.3239009167  Biso 1.0 Mg
Mg10 1.0000000000 0.9260990833 0.3239009167 0.9260990833  Biso 1.0 Mg
Mg11 1.0000000000 0.3239009167 0.3239009167 0.9260990833  Biso 1.0 Mg
Mg12 1.0000000000 0.9260990833 0.9260990833 0.3239009167  Biso 1.0 Mg
Mg13 1.0000000000 0.0739009167 0.6760990833 0.0739009167  Biso 1.0 Mg
Mg14 1.0000000000 0.6760990833 0.0739009167 0.6760990833  Biso 1.0 Mg
Mg15 1.0000000000 0.6760990833 0.0739009167 0.0739009167  Biso 1.0 Mg
Mg16 1.0000000000 0.0739009167 0.6760990833 0.6760990833  Biso 1.0 Mg
Mg17 1.0000000000 0.6760990833 0.6760990833 0.0739009167  Biso 1.0 Mg
Mg18 1.0000000000 0.0739009167 0.0739009167 0.6760990833  Biso 1.0 Mg
Pt19 1.0000000000 0.2759250820 0.2759250820 0.2759250820  Biso 1.0 Pt
Pt20 1.0000000000 0.2759250820 0.2759250820 0.6722247541  Biso 1.0 Pt
Pt21 1.0000000000 0.2759250820 0.6722247541 0.2759250820  Biso 1.0 Pt
Pt22 1.0000000000 0.6722247541 0.2759250820 0.2759250820  Biso 1.0 Pt
Pt23 1.0000000000 0.7240749180 0.7240749180 0.3277752459  Biso 1.0 Pt
Pt24 1.0000000000 0.7240749180 0.7240749180 0.7240749180  Biso 1.0 Pt
Pt25 1.0000000000 0.7240749180 0.3277752459 0.7240749180  Biso 1.0 Pt
Pt26 1.0000000000 0.3277752459 0.7240749180 0.7240749180  Biso 1.0 Pt
