# AFLOW.org Repositories
# B1Mo2   [BCT,BCT1,tI12] (STD_PRIM doi:10
data_B1Mo2
_pd_phase_name B1Mo2
_cell_length_a  4.6204886105
_cell_length_b  4.6204886105
_cell_length_c  4.6204886105
_cell_angle_alpha  105.6352955610
_cell_angle_beta  105.6352955610
_cell_angle_gamma  117.4499628317
_symmetry_space_group_name_H-M  'P1'
_symmetry_Int_Tables_Number  1
loop_
_symmetry_equiv_pos_site_id
_symmetry_equiv_pos_as_xyz
  1  x,y,z
loop_
 _atom_site_label
 _atom_site_occupancy
 _atom_site_fract_x
 _atom_site_fract_y
 _atom_site_fract_z
 _atom_site_thermal_displace_type
 _atom_site_B_iso_or_equiv
 _atom_site_type_symbol
B1 1.0000000000 0.2500000000 0.2500000000 0.0000000000  Biso 1.0 B
B2 1.0000000000 0.7500000000 0.7500000000 0.0000000000  Biso 1.0 B
Mo3 1.0000000000 0.1699895562 0.3300104438 0.5000000000  Biso 1.0 Mo
Mo4 1.0000000000 0.8300104438 0.6699895562 0.5000000000  Biso 1.0 Mo
Mo5 1.0000000000 0.3300104438 0.8300104438 0.1600208877  Biso 1.0 Mo
Mo6 1.0000000000 0.6699895562 0.1699895562 0.8399791123  Biso 1.0 Mo
