# AFLOW.org Repositories
# B1N1   [HEX,HEX,hP4] (STD_PRIM doi:10.10
data_B1N1
_pd_phase_name B1N1
_cell_length_a  2.5127981065
_cell_length_b  2.5127981065
_cell_length_c  7.8848884223
_cell_angle_alpha  90.0000000000
_cell_angle_beta  90.0000000000
_cell_angle_gamma  120.0000000000
_symmetry_space_group_name_H-M  'P1'
_symmetry_Int_Tables_Number  1
loop_
_symmetry_equiv_pos_site_id
_symmetry_equiv_pos_as_xyz
  1  x,y,z
loop_
 _atom_site_label
 _atom_site_occupancy
 _atom_site_fract_x
 _atom_site_fract_y
 _atom_site_fract_z
 _atom_site_thermal_displace_type
 _atom_site_B_iso_or_equiv
 _atom_site_type_symbol
B1 1.0000000000 0.0000000000 0.0000000000 0.2500000000  Biso 1.0 B
B2 1.0000000000 0.0000000000 0.0000000000 0.7500000000  Biso 1.0 B
N3 1.0000000000 0.3333804181 0.6666902091 0.2500000000  Biso 1.0 N
N4 1.0000000000 0.6666195819 0.3333097909 0.7500000000  Biso 1.0 N
