# AFLOW.org Repositories
# B1Nb1O4   [BCT,BCT1,tI24] (STD_PRIM doi:
data_B1Nb1O4
_pd_phase_name B1Nb1O4
_cell_length_a  5.2405288138
_cell_length_b  5.2405288138
_cell_length_c  5.2405288138
_cell_angle_alpha  106.0835730940
_cell_angle_beta  106.0835730940
_cell_angle_gamma  116.4823197217
_symmetry_space_group_name_H-M  'P1'
_symmetry_Int_Tables_Number  1
loop_
_symmetry_equiv_pos_site_id
_symmetry_equiv_pos_as_xyz
  1  x,y,z
loop_
 _atom_site_label
 _atom_site_occupancy
 _atom_site_fract_x
 _atom_site_fract_y
 _atom_site_fract_z
 _atom_site_thermal_displace_type
 _atom_site_B_iso_or_equiv
 _atom_site_type_symbol
B1 1.0000000000 0.6250000000 0.3750000000 0.7500000000  Biso 1.0 B
B2 1.0000000000 0.3750000000 0.6250000000 0.2500000000  Biso 1.0 B
Nb3 1.0000000000 0.8750000000 0.1250000000 0.2500000000  Biso 1.0 Nb
Nb4 1.0000000000 0.1250000000 0.8750000000 0.7500000000  Biso 1.0 Nb
O5 1.0000000000 0.8004727720 0.7278381577 0.9273653857  Biso 1.0 O
O6 1.0000000000 0.8004727720 0.3731073864 0.5726346143  Biso 1.0 O
O7 1.0000000000 0.3731073864 0.8004727720 0.0726346143  Biso 1.0 O
O8 1.0000000000 0.7278381577 0.8004727720 0.4273653857  Biso 1.0 O
O9 1.0000000000 0.1995272280 0.6268926136 0.4273653857  Biso 1.0 O
O10 1.0000000000 0.1995272280 0.2721618423 0.0726346143  Biso 1.0 O
O11 1.0000000000 0.6268926136 0.1995272280 0.9273653857  Biso 1.0 O
O12 1.0000000000 0.2721618423 0.1995272280 0.5726346143  Biso 1.0 O
