# AFLOW.org Repositories
# B1Ti1   [ORC,ORC,oP8] (STD_PRIM doi:10.1
data_B1Ti1
_pd_phase_name B1Ti1
_cell_length_a  3.0843672734
_cell_length_b  4.6347436508
_cell_length_c  6.2139731935
_cell_angle_alpha  90.0000000000
_cell_angle_beta  90.0000000000
_cell_angle_gamma  90.0000000000
_symmetry_space_group_name_H-M  'P1'
_symmetry_Int_Tables_Number  1
loop_
_symmetry_equiv_pos_site_id
_symmetry_equiv_pos_as_xyz
  1  x,y,z
loop_
 _atom_site_label
 _atom_site_occupancy
 _atom_site_fract_x
 _atom_site_fract_y
 _atom_site_fract_z
 _atom_site_thermal_displace_type
 _atom_site_B_iso_or_equiv
 _atom_site_type_symbol
B1 1.0000000000 0.7500000000 0.4018985520 0.0296077226  Biso 1.0 B
B2 1.0000000000 0.2500000000 0.9018985520 0.4703922774  Biso 1.0 B
B3 1.0000000000 0.2500000000 0.5981014480 0.9703922774  Biso 1.0 B
B4 1.0000000000 0.7500000000 0.0981014480 0.5296077226  Biso 1.0 B
Ti5 1.0000000000 0.7500000000 0.8775841521 0.1776592746  Biso 1.0 Ti
Ti6 1.0000000000 0.2500000000 0.3775841521 0.3223407254  Biso 1.0 Ti
Ti7 1.0000000000 0.2500000000 0.1224158479 0.8223407254  Biso 1.0 Ti
Ti8 1.0000000000 0.7500000000 0.6224158479 0.6776592746  Biso 1.0 Ti
