# AFLOW.org Repositories
# B1W1   [BCT,BCT2,tI16] (STD_PRIM doi:10.
data_B1W1
_pd_phase_name B1W1
_cell_length_a  8.8159804713
_cell_length_b  8.8159804713
_cell_length_c  8.8159804713
_cell_angle_alpha  159.3339987281
_cell_angle_beta  159.3339987281
_cell_angle_gamma  29.3890949061
_symmetry_space_group_name_H-M  'P1'
_symmetry_Int_Tables_Number  1
loop_
_symmetry_equiv_pos_site_id
_symmetry_equiv_pos_as_xyz
  1  x,y,z
loop_
 _atom_site_label
 _atom_site_occupancy
 _atom_site_fract_x
 _atom_site_fract_y
 _atom_site_fract_z
 _atom_site_thermal_displace_type
 _atom_site_B_iso_or_equiv
 _atom_site_type_symbol
B1 1.0000000000 0.3441977591 0.3441977591 0.0000000000  Biso 1.0 B
B2 1.0000000000 0.0941977591 0.5941977591 0.5000000000  Biso 1.0 B
B3 1.0000000000 0.4058022409 0.9058022409 0.5000000000  Biso 1.0 B
B4 1.0000000000 0.6558022409 0.6558022409 0.0000000000  Biso 1.0 B
W5 1.0000000000 0.1970585397 0.1970585397 0.0000000000  Biso 1.0 W
W6 1.0000000000 0.9470585397 0.4470585397 0.5000000000  Biso 1.0 W
W7 1.0000000000 0.5529414603 0.0529414603 0.5000000000  Biso 1.0 W
W8 1.0000000000 0.8029414603 0.8029414603 0.0000000000  Biso 1.0 W
