# AFLOW.org Repositories
# B28   [ORC,ORC,oP28] (STD_PRIM doi:10.10
data_B28
_pd_phase_name B28
_cell_length_a  5.0402729277
_cell_length_b  5.6090186788
_cell_length_c  6.9212207000
_cell_angle_alpha  90.0000000000
_cell_angle_beta  90.0000000000
_cell_angle_gamma  90.0000000000
_symmetry_space_group_name_H-M  'P1'
_symmetry_Int_Tables_Number  1
loop_
_symmetry_equiv_pos_site_id
_symmetry_equiv_pos_as_xyz
  1  x,y,z
loop_
 _atom_site_label
 _atom_site_occupancy
 _atom_site_fract_x
 _atom_site_fract_y
 _atom_site_fract_z
 _atom_site_thermal_displace_type
 _atom_site_B_iso_or_equiv
 _atom_site_type_symbol
B1 1.0000000000 0.1528096560 0.5925682941 0.7909129136  Biso 1.0 B
B2 1.0000000000 0.8471903440 0.4074317059 0.7909129136  Biso 1.0 B
B3 1.0000000000 0.3471903440 0.0925682941 0.7090870864  Biso 1.0 B
B4 1.0000000000 0.6528096560 0.9074317059 0.7090870864  Biso 1.0 B
B5 1.0000000000 0.8471903440 0.4074317059 0.2090870864  Biso 1.0 B
B6 1.0000000000 0.1528096560 0.5925682941 0.2090870864  Biso 1.0 B
B7 1.0000000000 0.6528096560 0.9074317059 0.2909129136  Biso 1.0 B
B8 1.0000000000 0.3471903440 0.0925682941 0.2909129136  Biso 1.0 B
B9 1.0000000000 0.6479946649 0.7287957723 0.5000000000  Biso 1.0 B
B10 1.0000000000 0.3520053351 0.2712042277 0.5000000000  Biso 1.0 B
B11 1.0000000000 0.8520053351 0.2287957723 0.0000000000  Biso 1.0 B
B12 1.0000000000 0.1479946649 0.7712042277 0.0000000000  Biso 1.0 B
B13 1.0000000000 0.3356454172 0.5080388427 0.0000000000  Biso 1.0 B
B14 1.0000000000 0.6643545828 0.4919611573 0.0000000000  Biso 1.0 B
B15 1.0000000000 0.1643545828 0.0080388427 0.5000000000  Biso 1.0 B
B16 1.0000000000 0.8356454172 0.9919611573 0.5000000000  Biso 1.0 B
B17 1.0000000000 0.8394018214 0.7188784947 0.8743517557  Biso 1.0 B
B18 1.0000000000 0.1605981786 0.2811215053 0.8743517557  Biso 1.0 B
B19 1.0000000000 0.6605981786 0.2188784947 0.6256482443  Biso 1.0 B
B20 1.0000000000 0.3394018214 0.7811215053 0.6256482443  Biso 1.0 B
B21 1.0000000000 0.1605981786 0.2811215053 0.1256482443  Biso 1.0 B
B22 1.0000000000 0.8394018214 0.7188784947 0.1256482443  Biso 1.0 B
B23 1.0000000000 0.3394018214 0.7811215053 0.3743517557  Biso 1.0 B
B24 1.0000000000 0.6605981786 0.2188784947 0.3743517557  Biso 1.0 B
B25 1.0000000000 0.6701531715 0.9793971524 0.0000000000  Biso 1.0 B
B26 1.0000000000 0.3298468285 0.0206028476 0.0000000000  Biso 1.0 B
B27 1.0000000000 0.8298468285 0.4793971524 0.5000000000  Biso 1.0 B
B28 1.0000000000 0.1701531715 0.5206028476 0.5000000000  Biso 1.0 B
