# AFLOW.org Repositories
# B2C2Ca1   [BCT,BCT2,tI20] (STD_PRIM doi:
data_B2C2Ca1
_pd_phase_name B2C2Ca1
_cell_length_a  5.3129445523
_cell_length_b  5.3129445523
_cell_length_c  5.3129445523
_cell_angle_alpha  119.3544609173
_cell_angle_beta  119.3544609173
_cell_angle_gamma  91.1217910388
_symmetry_space_group_name_H-M  'P1'
_symmetry_Int_Tables_Number  1
loop_
_symmetry_equiv_pos_site_id
_symmetry_equiv_pos_as_xyz
  1  x,y,z
loop_
 _atom_site_label
 _atom_site_occupancy
 _atom_site_fract_x
 _atom_site_fract_y
 _atom_site_fract_z
 _atom_site_thermal_displace_type
 _atom_site_B_iso_or_equiv
 _atom_site_type_symbol
B1 1.0000000000 0.6389626455 0.8610373545 0.5000000000  Biso 1.0 B
B2 1.0000000000 0.3610373545 0.1389626455 0.5000000000  Biso 1.0 B
B3 1.0000000000 0.1389626455 0.6389626455 0.7779252909  Biso 1.0 B
B4 1.0000000000 0.8610373545 0.3610373545 0.2220747091  Biso 1.0 B
C5 1.0000000000 0.8406788316 0.6593211684 0.5000000000  Biso 1.0 C
C6 1.0000000000 0.1593211684 0.3406788316 0.5000000000  Biso 1.0 C
C7 1.0000000000 0.3406788316 0.8406788316 0.1813576632  Biso 1.0 C
C8 1.0000000000 0.6593211684 0.1593211684 0.8186423368  Biso 1.0 C
Ca9 1.0000000000 0.7500000000 0.7500000000 0.0000000000  Biso 1.0 Ca
Ca10 1.0000000000 0.2500000000 0.2500000000 0.0000000000  Biso 1.0 Ca
