# AFLOW.org Repositories
# B2Dy1Os1   [ORC,ORC,oP16] (STD_PRIM doi:
data_B2Dy1Os1
_pd_phase_name B2Dy1Os1
_cell_length_a  5.3165213837
_cell_length_b  5.9024015062
_cell_length_c  6.3719194968
_cell_angle_alpha  90.0000000000
_cell_angle_beta  90.0000000000
_cell_angle_gamma  90.0000000000
_symmetry_space_group_name_H-M  'P1'
_symmetry_Int_Tables_Number  1
loop_
_symmetry_equiv_pos_site_id
_symmetry_equiv_pos_as_xyz
  1  x,y,z
loop_
 _atom_site_label
 _atom_site_occupancy
 _atom_site_fract_x
 _atom_site_fract_y
 _atom_site_fract_z
 _atom_site_thermal_displace_type
 _atom_site_B_iso_or_equiv
 _atom_site_type_symbol
B1 1.0000000000 0.0826255875 0.3638797750 0.5396601268  Biso 1.0 B
B2 1.0000000000 0.9173744125 0.1361202250 0.0396601268  Biso 1.0 B
B3 1.0000000000 0.5826255875 0.6361202250 0.4603398732  Biso 1.0 B
B4 1.0000000000 0.4173744125 0.8638797750 0.9603398732  Biso 1.0 B
B5 1.0000000000 0.9173744125 0.6361202250 0.4603398732  Biso 1.0 B
B6 1.0000000000 0.0826255875 0.8638797750 0.9603398732  Biso 1.0 B
B7 1.0000000000 0.4173744125 0.3638797750 0.5396601268  Biso 1.0 B
B8 1.0000000000 0.5826255875 0.1361202250 0.0396601268  Biso 1.0 B
Dy9 1.0000000000 0.2500000000 0.0100547604 0.3355527546  Biso 1.0 Dy
Dy10 1.0000000000 0.7500000000 0.4899452396 0.8355527546  Biso 1.0 Dy
Dy11 1.0000000000 0.7500000000 0.9899452396 0.6644472454  Biso 1.0 Dy
Dy12 1.0000000000 0.2500000000 0.5100547604 0.1644472454  Biso 1.0 Dy
Os13 1.0000000000 0.2500000000 0.1773750180 0.8183271630  Biso 1.0 Os
Os14 1.0000000000 0.7500000000 0.3226249820 0.3183271630  Biso 1.0 Os
Os15 1.0000000000 0.7500000000 0.8226249820 0.1816728370  Biso 1.0 Os
Os16 1.0000000000 0.2500000000 0.6773750180 0.6816728370  Biso 1.0 Os
