# AFLOW.org Repositories
# B2Ir1V2   [ORC,ORC,oP20] (STD_PRIM doi:1
data_B2Ir1V2
_pd_phase_name B2Ir1V2
_cell_length_a  3.1315726013
_cell_length_b  7.1640047967
_cell_length_c  9.2449302283
_cell_angle_alpha  90.0000000000
_cell_angle_beta  90.0000000000
_cell_angle_gamma  90.0000000000
_symmetry_space_group_name_H-M  'P1'
_symmetry_Int_Tables_Number  1
loop_
_symmetry_equiv_pos_site_id
_symmetry_equiv_pos_as_xyz
  1  x,y,z
loop_
 _atom_site_label
 _atom_site_occupancy
 _atom_site_fract_x
 _atom_site_fract_y
 _atom_site_fract_z
 _atom_site_thermal_displace_type
 _atom_site_B_iso_or_equiv
 _atom_site_type_symbol
B1 1.0000000000 0.0000000000 0.3849951749 0.0396751024  Biso 1.0 B
B2 1.0000000000 0.0000000000 0.6150048251 0.9603248976  Biso 1.0 B
B3 1.0000000000 0.5000000000 0.8849951749 0.4603248976  Biso 1.0 B
B4 1.0000000000 0.5000000000 0.1150048251 0.5396751024  Biso 1.0 B
B5 1.0000000000 0.0000000000 0.3743813062 0.2337479981  Biso 1.0 B
B6 1.0000000000 0.0000000000 0.6256186938 0.7662520019  Biso 1.0 B
B7 1.0000000000 0.5000000000 0.8743813062 0.2662520019  Biso 1.0 B
B8 1.0000000000 0.5000000000 0.1256186938 0.7337479981  Biso 1.0 B
Ir9 1.0000000000 0.0000000000 0.8721247998 0.1045524565  Biso 1.0 Ir
Ir10 1.0000000000 0.0000000000 0.1278752002 0.8954475435  Biso 1.0 Ir
Ir11 1.0000000000 0.5000000000 0.3721247998 0.3954475435  Biso 1.0 Ir
Ir12 1.0000000000 0.5000000000 0.6278752002 0.6045524565  Biso 1.0 Ir
V13 1.0000000000 0.0000000000 0.6817710868 0.3691334102  Biso 1.0 V
V14 1.0000000000 0.0000000000 0.3182289132 0.6308665898  Biso 1.0 V
V15 1.0000000000 0.5000000000 0.1817710868 0.1308665898  Biso 1.0 V
V16 1.0000000000 0.5000000000 0.8182289132 0.8691334102  Biso 1.0 V
V17 1.0000000000 0.0000000000 0.9264487540 0.6401459193  Biso 1.0 V
V18 1.0000000000 0.0000000000 0.0735512460 0.3598540807  Biso 1.0 V
V19 1.0000000000 0.5000000000 0.4264487540 0.8598540807  Biso 1.0 V
V20 1.0000000000 0.5000000000 0.5735512460 0.1401459193  Biso 1.0 V
