# AFLOW.org Repositories
# B2Si1V5   [BCT,BCT2,tI32] (STD_PRIM doi:
data_B2Si1V5
_pd_phase_name B2Si1V5
_cell_length_a  6.8075535451
_cell_length_b  6.8075535451
_cell_length_c  6.8075535451
_cell_angle_alpha  129.3412414462
_cell_angle_beta  129.3412414462
_cell_angle_gamma  74.4621180655
_symmetry_space_group_name_H-M  'P1'
_symmetry_Int_Tables_Number  1
loop_
_symmetry_equiv_pos_site_id
_symmetry_equiv_pos_as_xyz
  1  x,y,z
loop_
 _atom_site_label
 _atom_site_occupancy
 _atom_site_fract_x
 _atom_site_fract_y
 _atom_site_fract_z
 _atom_site_thermal_displace_type
 _atom_site_B_iso_or_equiv
 _atom_site_type_symbol
B1 1.0000000000 0.6138781457 0.8861218543 0.5000000000  Biso 1.0 B
B2 1.0000000000 0.3861218543 0.1138781457 0.5000000000  Biso 1.0 B
B3 1.0000000000 0.8861218543 0.3861218543 0.2722437085  Biso 1.0 B
B4 1.0000000000 0.1138781457 0.6138781457 0.7277562915  Biso 1.0 B
Si5 1.0000000000 0.2500000000 0.2500000000 0.0000000000  Biso 1.0 Si
Si6 1.0000000000 0.7500000000 0.7500000000 0.0000000000  Biso 1.0 Si
V7 1.0000000000 0.0000000000 0.0000000000 0.0000000000  Biso 1.0 V
V8 1.0000000000 0.5000000000 0.5000000000 0.0000000000  Biso 1.0 V
V9 1.0000000000 0.9675770425 0.8072778445 0.5000000000  Biso 1.0 V
V10 1.0000000000 0.3072778445 0.4675770425 0.5000000000  Biso 1.0 V
V11 1.0000000000 0.8072778445 0.3072778445 0.8397008020  Biso 1.0 V
V12 1.0000000000 0.4675770425 0.9675770425 0.1602991980  Biso 1.0 V
V13 1.0000000000 0.5324229575 0.0324229575 0.8397008020  Biso 1.0 V
V14 1.0000000000 0.1927221555 0.6927221555 0.1602991980  Biso 1.0 V
V15 1.0000000000 0.6927221555 0.5324229575 0.5000000000  Biso 1.0 V
V16 1.0000000000 0.0324229575 0.1927221555 0.5000000000  Biso 1.0 V
