# AFLOW.org Repositories
# B3Nb2   [ORCC,ORCC,oS20] (STD_PRIM doi:1
data_B3Nb2
_pd_phase_name B3Nb2
_cell_length_a  9.9215323272
_cell_length_b  9.9215323272
_cell_length_c  3.1419779441
_cell_angle_alpha  90.0000000000
_cell_angle_beta  90.0000000000
_cell_angle_gamma  160.6586543703
_symmetry_space_group_name_H-M  'P1'
_symmetry_Int_Tables_Number  1
loop_
_symmetry_equiv_pos_site_id
_symmetry_equiv_pos_as_xyz
  1  x,y,z
loop_
 _atom_site_label
 _atom_site_occupancy
 _atom_site_fract_x
 _atom_site_fract_y
 _atom_site_fract_z
 _atom_site_thermal_displace_type
 _atom_site_B_iso_or_equiv
 _atom_site_type_symbol
B1 1.0000000000 0.0228306820 0.9771693180 0.2500000000  Biso 1.0 B
B2 1.0000000000 0.9771693180 0.0228306820 0.7500000000  Biso 1.0 B
B3 1.0000000000 0.1155151177 0.8844848823 0.2500000000  Biso 1.0 B
B4 1.0000000000 0.8844848823 0.1155151177 0.7500000000  Biso 1.0 B
B5 1.0000000000 0.8349552897 0.1650447103 0.2500000000  Biso 1.0 B
B6 1.0000000000 0.1650447103 0.8349552897 0.7500000000  Biso 1.0 B
Nb7 1.0000000000 0.4310406650 0.5689593350 0.2500000000  Biso 1.0 Nb
Nb8 1.0000000000 0.5689593350 0.4310406650 0.7500000000  Biso 1.0 Nb
Nb9 1.0000000000 0.7023593602 0.2976406398 0.2500000000  Biso 1.0 Nb
Nb10 1.0000000000 0.2976406398 0.7023593602 0.7500000000  Biso 1.0 Nb
