# AFLOW.org Repositories
# B4Dy1Rh4   [TET,TET,tP18] (STD_PRIM doi:
data_B4Dy1Rh4
_pd_phase_name B4Dy1Rh4
_cell_length_a  5.3176765507
_cell_length_b  5.3176765507
_cell_length_c  7.4458748788
_cell_angle_alpha  90.0000000000
_cell_angle_beta  90.0000000000
_cell_angle_gamma  90.0000000000
_symmetry_space_group_name_H-M  'P1'
_symmetry_Int_Tables_Number  1
loop_
_symmetry_equiv_pos_site_id
_symmetry_equiv_pos_as_xyz
  1  x,y,z
loop_
 _atom_site_label
 _atom_site_occupancy
 _atom_site_fract_x
 _atom_site_fract_y
 _atom_site_fract_z
 _atom_site_thermal_displace_type
 _atom_site_B_iso_or_equiv
 _atom_site_type_symbol
B1 1.0000000000 0.2500000000 0.0804581321 0.1016598761  Biso 1.0 B
B2 1.0000000000 0.2500000000 0.4195418679 0.1016598761  Biso 1.0 B
B3 1.0000000000 0.4195418679 0.2500000000 0.6016598761  Biso 1.0 B
B4 1.0000000000 0.0804581321 0.2500000000 0.6016598761  Biso 1.0 B
B5 1.0000000000 0.7500000000 0.5804581321 0.8983401239  Biso 1.0 B
B6 1.0000000000 0.7500000000 0.9195418679 0.8983401239  Biso 1.0 B
B7 1.0000000000 0.5804581321 0.7500000000 0.3983401239  Biso 1.0 B
B8 1.0000000000 0.9195418679 0.7500000000 0.3983401239  Biso 1.0 B
Dy9 1.0000000000 0.7500000000 0.2500000000 0.2500000000  Biso 1.0 Dy
Dy10 1.0000000000 0.2500000000 0.7500000000 0.7500000000  Biso 1.0 Dy
Rh11 1.0000000000 0.2500000000 0.5010388854 0.3967621696  Biso 1.0 Rh
Rh12 1.0000000000 0.2500000000 0.9989611146 0.3967621696  Biso 1.0 Rh
Rh13 1.0000000000 0.9989611146 0.2500000000 0.8967621696  Biso 1.0 Rh
Rh14 1.0000000000 0.5010388854 0.2500000000 0.8967621696  Biso 1.0 Rh
Rh15 1.0000000000 0.7500000000 0.0010388854 0.6032378304  Biso 1.0 Rh
Rh16 1.0000000000 0.7500000000 0.4989611146 0.6032378304  Biso 1.0 Rh
Rh17 1.0000000000 0.0010388854 0.7500000000 0.1032378304  Biso 1.0 Rh
Rh18 1.0000000000 0.4989611146 0.7500000000 0.1032378304  Biso 1.0 Rh
