# AFLOW.org Repositories
# B4In5Ir9   [HEX,HEX,hP18] (STD_PRIM doi:
data_B4In5Ir9
_pd_phase_name B4In5Ir9
_cell_length_a  5.6091655414
_cell_length_b  5.6091655414
_cell_length_c  10.3201396493
_cell_angle_alpha  90.0000000000
_cell_angle_beta  90.0000000000
_cell_angle_gamma  120.0000000000
_symmetry_space_group_name_H-M  'P1'
_symmetry_Int_Tables_Number  1
loop_
_symmetry_equiv_pos_site_id
_symmetry_equiv_pos_as_xyz
  1  x,y,z
loop_
 _atom_site_label
 _atom_site_occupancy
 _atom_site_fract_x
 _atom_site_fract_y
 _atom_site_fract_z
 _atom_site_thermal_displace_type
 _atom_site_B_iso_or_equiv
 _atom_site_type_symbol
B1 1.0000000000 0.3333440141 0.6666929231 0.1465500085  Biso 1.0 B
B2 1.0000000000 0.3333440141 0.6666929231 0.8534499915  Biso 1.0 B
B3 1.0000000000 0.6666510909 0.3333070769 0.8534499915  Biso 1.0 B
B4 1.0000000000 0.6666510909 0.3333070769 0.1465500085  Biso 1.0 B
In5 1.0000000000 0.3333871765 0.6666834608 0.5000000000  Biso 1.0 In
In6 1.0000000000 0.6667037157 0.3333165392 0.5000000000  Biso 1.0 In
In7 1.0000000000 0.0000000000 0.0000000000 0.3415091477  Biso 1.0 In
In8 1.0000000000 0.0000000000 0.0000000000 0.6584908523  Biso 1.0 In
In9 1.0000000000 0.0000000000 0.0000000000 0.0000000000  Biso 1.0 In
Ir10 1.0000000000 0.4870724707 0.4870724707 0.0000000000  Biso 1.0 Ir
Ir11 1.0000000000 0.5128967512 0.0000000000 0.0000000000  Biso 1.0 Ir
Ir12 1.0000000000 0.0000000000 0.5129275293 0.0000000000  Biso 1.0 Ir
Ir13 1.0000000000 0.4865627005 0.4865627005 0.2739499323  Biso 1.0 Ir
Ir14 1.0000000000 0.5134416054 0.0000000000 0.2739591513  Biso 1.0 Ir
Ir15 1.0000000000 0.0000000000 0.5134372995 0.2739499323  Biso 1.0 Ir
Ir16 1.0000000000 0.4865627005 0.4865627005 0.7260500677  Biso 1.0 Ir
Ir17 1.0000000000 0.5134416054 0.0000000000 0.7260408487  Biso 1.0 Ir
Ir18 1.0000000000 0.0000000000 0.5134372995 0.7260500677  Biso 1.0 Ir
