# AFLOW.org Repositories
# B4Os3Sc1   [ORCC,ORCC,oS32] (STD_PRIM do
data_B4Os3Sc1
_pd_phase_name B4Os3Sc1
_cell_length_a  6.1096819104
_cell_length_b  6.1096819104
_cell_length_c  9.8847916456
_cell_angle_alpha  90.0000000000
_cell_angle_beta  90.0000000000
_cell_angle_gamma  151.8987805807
_symmetry_space_group_name_H-M  'P1'
_symmetry_Int_Tables_Number  1
loop_
_symmetry_equiv_pos_site_id
_symmetry_equiv_pos_as_xyz
  1  x,y,z
loop_
 _atom_site_label
 _atom_site_occupancy
 _atom_site_fract_x
 _atom_site_fract_y
 _atom_site_fract_z
 _atom_site_thermal_displace_type
 _atom_site_B_iso_or_equiv
 _atom_site_type_symbol
B1 1.0000000000 0.1573574842 0.8426425158 0.8908818853  Biso 1.0 B
B2 1.0000000000 0.8426425158 0.1573574842 0.3908818853  Biso 1.0 B
B3 1.0000000000 0.1573574842 0.8426425158 0.6091181147  Biso 1.0 B
B4 1.0000000000 0.8426425158 0.1573574842 0.1091181147  Biso 1.0 B
B5 1.0000000000 0.6488728469 0.3511271531 0.7500000000  Biso 1.0 B
B6 1.0000000000 0.3511271531 0.6488728469 0.2500000000  Biso 1.0 B
B7 1.0000000000 0.3701343880 0.6298656120 0.7500000000  Biso 1.0 B
B8 1.0000000000 0.6298656120 0.3701343880 0.2500000000  Biso 1.0 B
Os9 1.0000000000 0.2021132204 0.7978867796 0.3913648208  Biso 1.0 Os
Os10 1.0000000000 0.7978867796 0.2021132204 0.8913648208  Biso 1.0 Os
Os11 1.0000000000 0.2021132204 0.7978867796 0.1086351792  Biso 1.0 Os
Os12 1.0000000000 0.7978867796 0.2021132204 0.6086351792  Biso 1.0 Os
Os13 1.0000000000 0.0110895381 0.9889104619 0.7500000000  Biso 1.0 Os
Os14 1.0000000000 0.9889104619 0.0110895381 0.2500000000  Biso 1.0 Os
Sc15 1.0000000000 0.5000000000 0.5000000000 0.0000000000  Biso 1.0 Sc
Sc16 1.0000000000 0.5000000000 0.5000000000 0.5000000000  Biso 1.0 Sc
