# AFLOW.org Repositories
# B4Rh4Tb1   [TET,TET,tP18] (STD_PRIM doi:
data_B4Rh4Tb1
_pd_phase_name B4Rh4Tb1
_cell_length_a  5.3223257619
_cell_length_b  5.3223257619
_cell_length_c  7.4597412412
_cell_angle_alpha  90.0000000000
_cell_angle_beta  90.0000000000
_cell_angle_gamma  90.0000000000
_symmetry_space_group_name_H-M  'P1'
_symmetry_Int_Tables_Number  1
loop_
_symmetry_equiv_pos_site_id
_symmetry_equiv_pos_as_xyz
  1  x,y,z
loop_
 _atom_site_label
 _atom_site_occupancy
 _atom_site_fract_x
 _atom_site_fract_y
 _atom_site_fract_z
 _atom_site_thermal_displace_type
 _atom_site_B_iso_or_equiv
 _atom_site_type_symbol
B1 1.0000000000 0.2499111880 0.0804051247 0.1015525995  Biso 1.0 B
B2 1.0000000000 0.2499085482 0.4195099150 0.1015476742  Biso 1.0 B
B3 1.0000000000 0.4195099150 0.2499085482 0.6015476742  Biso 1.0 B
B4 1.0000000000 0.0804051247 0.2499111880 0.6015525995  Biso 1.0 B
B5 1.0000000000 0.7499049007 0.5804110295 0.8984278977  Biso 1.0 B
B6 1.0000000000 0.7499021266 0.9195595221 0.8984875324  Biso 1.0 B
B7 1.0000000000 0.5804110295 0.7499049007 0.3984278977  Biso 1.0 B
B8 1.0000000000 0.9195595221 0.7499021266 0.3984875324  Biso 1.0 B
Rh9 1.0000000000 0.2499913979 0.5010313206 0.3965925997  Biso 1.0 Rh
Rh10 1.0000000000 0.2499823378 0.9988517084 0.3965598000  Biso 1.0 Rh
Rh11 1.0000000000 0.9988517084 0.2499823378 0.8965598000  Biso 1.0 Rh
Rh12 1.0000000000 0.5010313206 0.2499913979 0.8965925997  Biso 1.0 Rh
Rh13 1.0000000000 0.7499401399 0.0010631021 0.6034140023  Biso 1.0 Rh
Rh14 1.0000000000 0.7499381472 0.4988199807 0.6034165992  Biso 1.0 Rh
Rh15 1.0000000000 0.0010631021 0.7499401399 0.1034140023  Biso 1.0 Rh
Rh16 1.0000000000 0.4988199807 0.7499381472 0.1034165992  Biso 1.0 Rh
Tb17 1.0000000000 0.7499675818 0.2499019290 0.2500012950  Biso 1.0 Tb
Tb18 1.0000000000 0.2499019290 0.7499675818 0.7500012950  Biso 1.0 Tb
