# AFLOW.org Repositories
# B6Ni20Sc3   [FCC,FCC,cF116] (STD_PRIM do
data_B6Ni20Sc3
_pd_phase_name B6Ni20Sc3
_cell_length_a  7.5065866429
_cell_length_b  7.5065866429
_cell_length_c  7.5065866429
_cell_angle_alpha  60.0000000000
_cell_angle_beta  60.0000000000
_cell_angle_gamma  60.0000000000
_symmetry_space_group_name_H-M  'P1'
_symmetry_Int_Tables_Number  1
loop_
_symmetry_equiv_pos_site_id
_symmetry_equiv_pos_as_xyz
  1  x,y,z
loop_
 _atom_site_label
 _atom_site_occupancy
 _atom_site_fract_x
 _atom_site_fract_y
 _atom_site_fract_z
 _atom_site_thermal_displace_type
 _atom_site_B_iso_or_equiv
 _atom_site_type_symbol
B1 1.0000000000 0.2684685285 0.7315314715 0.2684685285  Biso 1.0 B
B2 1.0000000000 0.7315314715 0.2684685285 0.7315314715  Biso 1.0 B
B3 1.0000000000 0.7315314715 0.7315314715 0.2684685285  Biso 1.0 B
B4 1.0000000000 0.2684685285 0.2684685285 0.7315314715  Biso 1.0 B
B5 1.0000000000 0.2684685285 0.7315314715 0.7315314715  Biso 1.0 B
B6 1.0000000000 0.7315314715 0.2684685285 0.2684685285  Biso 1.0 B
Ni7 1.0000000000 0.3869179630 0.8392461111 0.3869179630  Biso 1.0 Ni
Ni8 1.0000000000 0.3869179630 0.3869179630 0.8392461111  Biso 1.0 Ni
Ni9 1.0000000000 0.8392461111 0.3869179630 0.3869179630  Biso 1.0 Ni
Ni10 1.0000000000 0.3869179630 0.3869179630 0.3869179630  Biso 1.0 Ni
Ni11 1.0000000000 0.6130820370 0.6130820370 0.1607538889  Biso 1.0 Ni
Ni12 1.0000000000 0.6130820370 0.1607538889 0.6130820370  Biso 1.0 Ni
Ni13 1.0000000000 0.1607538889 0.6130820370 0.6130820370  Biso 1.0 Ni
Ni14 1.0000000000 0.6130820370 0.6130820370 0.6130820370  Biso 1.0 Ni
Ni15 1.0000000000 0.0000000000 0.6569388852 0.0000000000  Biso 1.0 Ni
Ni16 1.0000000000 0.3430611148 0.0000000000 0.6569388852  Biso 1.0 Ni
Ni17 1.0000000000 0.6569388852 0.0000000000 0.3430611148  Biso 1.0 Ni
Ni18 1.0000000000 0.0000000000 0.3430611148 0.0000000000  Biso 1.0 Ni
Ni19 1.0000000000 0.3430611148 0.6569388852 0.0000000000  Biso 1.0 Ni
Ni20 1.0000000000 0.0000000000 0.0000000000 0.3430611148  Biso 1.0 Ni
Ni21 1.0000000000 0.0000000000 0.0000000000 0.6569388852  Biso 1.0 Ni
Ni22 1.0000000000 0.6569388852 0.3430611148 0.0000000000  Biso 1.0 Ni
Ni23 1.0000000000 0.0000000000 0.6569388852 0.3430611148  Biso 1.0 Ni
Ni24 1.0000000000 0.6569388852 0.0000000000 0.0000000000  Biso 1.0 Ni
Ni25 1.0000000000 0.3430611148 0.0000000000 0.0000000000  Biso 1.0 Ni
Ni26 1.0000000000 0.0000000000 0.3430611148 0.6569388852  Biso 1.0 Ni
Sc27 1.0000000000 0.0000000000 0.0000000000 0.0000000000  Biso 1.0 Sc
Sc28 1.0000000000 0.2500000000 0.2500000000 0.2500000000  Biso 1.0 Sc
Sc29 1.0000000000 0.7500000000 0.7500000000 0.7500000000  Biso 1.0 Sc
