# AFLOW.org Repositories
# B6Re1Y2   [ORC,ORC,oP36] (STD_PRIM doi:1
data_B6Re1Y2
_pd_phase_name B6Re1Y2
_cell_length_a  3.6935451504
_cell_length_b  9.1977122974
_cell_length_c  11.5776996655
_cell_angle_alpha  90.0000000000
_cell_angle_beta  90.0000000000
_cell_angle_gamma  90.0000000000
_symmetry_space_group_name_H-M  'P1'
_symmetry_Int_Tables_Number  1
loop_
_symmetry_equiv_pos_site_id
_symmetry_equiv_pos_as_xyz
  1  x,y,z
loop_
 _atom_site_label
 _atom_site_occupancy
 _atom_site_fract_x
 _atom_site_fract_y
 _atom_site_fract_z
 _atom_site_thermal_displace_type
 _atom_site_B_iso_or_equiv
 _atom_site_type_symbol
B1 1.0000000000 0.5000000000 0.0535482194 0.9328073800  Biso 1.0 B
B2 1.0000000000 0.5000000000 0.9464517806 0.0671926200  Biso 1.0 B
B3 1.0000000000 0.5000000000 0.4464517806 0.4328073800  Biso 1.0 B
B4 1.0000000000 0.5000000000 0.5535482194 0.5671926200  Biso 1.0 B
B5 1.0000000000 0.5000000000 0.2492825600 0.9185326902  Biso 1.0 B
B6 1.0000000000 0.5000000000 0.7507174400 0.0814673098  Biso 1.0 B
B7 1.0000000000 0.5000000000 0.2507174400 0.4185326902  Biso 1.0 B
B8 1.0000000000 0.5000000000 0.7492825600 0.5814673098  Biso 1.0 B
B9 1.0000000000 0.5000000000 0.2922425933 0.7653487615  Biso 1.0 B
B10 1.0000000000 0.5000000000 0.7077574067 0.2346512385  Biso 1.0 B
B11 1.0000000000 0.5000000000 0.2077574067 0.2653487615  Biso 1.0 B
B12 1.0000000000 0.5000000000 0.7922425933 0.7346512385  Biso 1.0 B
B13 1.0000000000 0.5000000000 0.1312609372 0.6858319710  Biso 1.0 B
B14 1.0000000000 0.5000000000 0.8687390628 0.3141680290  Biso 1.0 B
B15 1.0000000000 0.5000000000 0.3687390628 0.1858319710  Biso 1.0 B
B16 1.0000000000 0.5000000000 0.6312609372 0.8141680290  Biso 1.0 B
B17 1.0000000000 0.5000000000 0.4829603564 0.7118423434  Biso 1.0 B
B18 1.0000000000 0.5000000000 0.5170396436 0.2881576566  Biso 1.0 B
B19 1.0000000000 0.5000000000 0.0170396436 0.2118423434  Biso 1.0 B
B20 1.0000000000 0.5000000000 0.9829603564 0.7881576566  Biso 1.0 B
B21 1.0000000000 0.5000000000 0.1003386383 0.5279903249  Biso 1.0 B
B22 1.0000000000 0.5000000000 0.8996613617 0.4720096751  Biso 1.0 B
B23 1.0000000000 0.5000000000 0.3996613617 0.0279903249  Biso 1.0 B
B24 1.0000000000 0.5000000000 0.6003386383 0.9720096751  Biso 1.0 B
Re25 1.0000000000 0.0000000000 0.1389771131 0.8207829413  Biso 1.0 Re
Re26 1.0000000000 0.0000000000 0.8610228869 0.1792170587  Biso 1.0 Re
Re27 1.0000000000 0.0000000000 0.3610228869 0.3207829413  Biso 1.0 Re
Re28 1.0000000000 0.0000000000 0.6389771131 0.6792170587  Biso 1.0 Re
Y29 1.0000000000 0.0000000000 0.8240564326 0.9138708600  Biso 1.0 Y
Y30 1.0000000000 0.0000000000 0.1759435674 0.0861291400  Biso 1.0 Y
Y31 1.0000000000 0.0000000000 0.6759435674 0.4138708600  Biso 1.0 Y
Y32 1.0000000000 0.0000000000 0.3240564326 0.5861291400  Biso 1.0 Y
Y33 1.0000000000 0.0000000000 0.4433235884 0.8698070380  Biso 1.0 Y
Y34 1.0000000000 0.0000000000 0.5566764116 0.1301929620  Biso 1.0 Y
Y35 1.0000000000 0.0000000000 0.0566764116 0.3698070380  Biso 1.0 Y
Y36 1.0000000000 0.0000000000 0.9433235884 0.6301929620  Biso 1.0 Y
