# AFLOW.org Repositories
# Ba1Ce1O3   [ORC,ORC,oP20] (STD_PRIM doi:
data_Ba1Ce1O3
_pd_phase_name Ba1Ce1O3
_cell_length_a  6.3202713076
_cell_length_b  6.3185409892
_cell_length_c  8.9094096747
_cell_angle_alpha  90.0000000000
_cell_angle_beta  90.0000000000
_cell_angle_gamma  90.0000000000
_symmetry_space_group_name_H-M  'P1'
_symmetry_Int_Tables_Number  1
loop_
_symmetry_equiv_pos_site_id
_symmetry_equiv_pos_as_xyz
  1  x,y,z
loop_
 _atom_site_label
 _atom_site_occupancy
 _atom_site_fract_x
 _atom_site_fract_y
 _atom_site_fract_z
 _atom_site_thermal_displace_type
 _atom_site_B_iso_or_equiv
 _atom_site_type_symbol
Ba1 1.0000000000 0.9913749755 0.9774551174 0.7500000000  Biso 1.0 Ba
Ba2 1.0000000000 0.4913749755 0.5225448826 0.2500000000  Biso 1.0 Ba
Ba3 1.0000000000 0.0086250245 0.0225448826 0.2500000000  Biso 1.0 Ba
Ba4 1.0000000000 0.5086250245 0.4774551174 0.7500000000  Biso 1.0 Ba
Ce5 1.0000000000 0.5000000000 0.0000000000 0.0000000000  Biso 1.0 Ce
Ce6 1.0000000000 0.0000000000 0.5000000000 0.0000000000  Biso 1.0 Ce
Ce7 1.0000000000 0.5000000000 0.0000000000 0.5000000000  Biso 1.0 Ce
Ce8 1.0000000000 0.0000000000 0.5000000000 0.5000000000  Biso 1.0 Ce
O9 1.0000000000 0.0813999378 0.5181905642 0.7500000000  Biso 1.0 O
O10 1.0000000000 0.5813999378 0.9818094358 0.2500000000  Biso 1.0 O
O11 1.0000000000 0.9186000622 0.4818094358 0.2500000000  Biso 1.0 O
O12 1.0000000000 0.4186000622 0.0181905642 0.7500000000  Biso 1.0 O
O13 1.0000000000 0.7213104208 0.7207870400 0.9554853407  Biso 1.0 O
O14 1.0000000000 0.2213104208 0.7792129600 0.0445146593  Biso 1.0 O
O15 1.0000000000 0.2786895792 0.2792129600 0.4554853407  Biso 1.0 O
O16 1.0000000000 0.7786895792 0.2207870400 0.5445146593  Biso 1.0 O
O17 1.0000000000 0.2786895792 0.2792129600 0.0445146593  Biso 1.0 O
O18 1.0000000000 0.7786895792 0.2207870400 0.9554853407  Biso 1.0 O
O19 1.0000000000 0.7213104208 0.7207870400 0.5445146593  Biso 1.0 O
O20 1.0000000000 0.2213104208 0.7792129600 0.4554853407  Biso 1.0 O
