# AFLOW.org Repositories
# Ba1Cu2S2   [ORC,ORC,oP20] (STD_PRIM doi:
data_Ba1Cu2S2
_pd_phase_name Ba1Cu2S2
_cell_length_a  4.0694311156
_cell_length_b  9.3426218523
_cell_length_c  10.4398241541
_cell_angle_alpha  90.0000000000
_cell_angle_beta  90.0000000000
_cell_angle_gamma  90.0000000000
_symmetry_space_group_name_H-M  'P1'
_symmetry_Int_Tables_Number  1
loop_
_symmetry_equiv_pos_site_id
_symmetry_equiv_pos_as_xyz
  1  x,y,z
loop_
 _atom_site_label
 _atom_site_occupancy
 _atom_site_fract_x
 _atom_site_fract_y
 _atom_site_fract_z
 _atom_site_thermal_displace_type
 _atom_site_B_iso_or_equiv
 _atom_site_type_symbol
Ba1 1.0000000000 0.7500000000 0.2595381042 0.6770106304  Biso 1.0 Ba
Ba2 1.0000000000 0.2500000000 0.2404618958 0.1770106304  Biso 1.0 Ba
Ba3 1.0000000000 0.2500000000 0.7404618958 0.3229893696  Biso 1.0 Ba
Ba4 1.0000000000 0.7500000000 0.7595381042 0.8229893696  Biso 1.0 Ba
Cu5 1.0000000000 0.2500000000 0.0559116631 0.8890147349  Biso 1.0 Cu
Cu6 1.0000000000 0.7500000000 0.4440883369 0.3890147349  Biso 1.0 Cu
Cu7 1.0000000000 0.7500000000 0.9440883369 0.1109852651  Biso 1.0 Cu
Cu8 1.0000000000 0.2500000000 0.5559116631 0.6109852651  Biso 1.0 Cu
Cu9 1.0000000000 0.7500000000 0.4172701256 0.9558408544  Biso 1.0 Cu
Cu10 1.0000000000 0.2500000000 0.0827298744 0.4558408544  Biso 1.0 Cu
Cu11 1.0000000000 0.2500000000 0.5827298744 0.0441591456  Biso 1.0 Cu
Cu12 1.0000000000 0.7500000000 0.9172701256 0.5441591456  Biso 1.0 Cu
S13 1.0000000000 0.2500000000 0.4824389767 0.8319560509  Biso 1.0 S
S14 1.0000000000 0.7500000000 0.0175610233 0.3319560509  Biso 1.0 S
S15 1.0000000000 0.7500000000 0.5175610233 0.1680439491  Biso 1.0 S
S16 1.0000000000 0.2500000000 0.9824389767 0.6680439491  Biso 1.0 S
S17 1.0000000000 0.7500000000 0.1583379342 0.9604705360  Biso 1.0 S
S18 1.0000000000 0.2500000000 0.3416620658 0.4604705360  Biso 1.0 S
S19 1.0000000000 0.2500000000 0.8416620658 0.0395294640  Biso 1.0 S
S20 1.0000000000 0.7500000000 0.6583379342 0.5395294640  Biso 1.0 S
