# AFLOW.org Repositories
# Ba1Hg2Tl2   [TET,TET,tP20] (STD_PRIM doi
data_Ba1Hg2Tl2
_pd_phase_name Ba1Hg2Tl2
_cell_length_a  11.0040974841
_cell_length_b  11.0040974841
_cell_length_c  5.2002779109
_cell_angle_alpha  90.0000000000
_cell_angle_beta  90.0000000000
_cell_angle_gamma  90.0000000000
_symmetry_space_group_name_H-M  'P1'
_symmetry_Int_Tables_Number  1
loop_
_symmetry_equiv_pos_site_id
_symmetry_equiv_pos_as_xyz
  1  x,y,z
loop_
 _atom_site_label
 _atom_site_occupancy
 _atom_site_fract_x
 _atom_site_fract_y
 _atom_site_fract_z
 _atom_site_thermal_displace_type
 _atom_site_B_iso_or_equiv
 _atom_site_type_symbol
Ba1 1.0000000000 0.8514448294 0.1485551706 0.0000000000  Biso 1.0 Ba
Ba2 1.0000000000 0.1485551706 0.8514448294 0.0000000000  Biso 1.0 Ba
Ba3 1.0000000000 0.3514448294 0.3514448294 0.5000000000  Biso 1.0 Ba
Ba4 1.0000000000 0.6485551706 0.6485551706 0.5000000000  Biso 1.0 Ba
Hg5 1.0000000000 0.5953989561 0.4046010439 0.0000000000  Biso 1.0 Hg
Hg6 1.0000000000 0.4046010439 0.5953989561 0.0000000000  Biso 1.0 Hg
Hg7 1.0000000000 0.0953989561 0.0953989561 0.5000000000  Biso 1.0 Hg
Hg8 1.0000000000 0.9046010439 0.9046010439 0.5000000000  Biso 1.0 Hg
Hg9 1.0000000000 0.1861711369 0.1861711369 0.0000000000  Biso 1.0 Hg
Hg10 1.0000000000 0.8138288631 0.8138288631 0.0000000000  Biso 1.0 Hg
Hg11 1.0000000000 0.3138288631 0.6861711369 0.5000000000  Biso 1.0 Hg
Hg12 1.0000000000 0.6861711369 0.3138288631 0.5000000000  Biso 1.0 Hg
Tl13 1.0000000000 0.4701342396 0.1409659049 0.0000000000  Biso 1.0 Tl
Tl14 1.0000000000 0.5298657604 0.8590340951 0.0000000000  Biso 1.0 Tl
Tl15 1.0000000000 0.3590340951 0.9701342396 0.5000000000  Biso 1.0 Tl
Tl16 1.0000000000 0.6409659049 0.0298657604 0.5000000000  Biso 1.0 Tl
Tl17 1.0000000000 0.0298657604 0.6409659049 0.5000000000  Biso 1.0 Tl
Tl18 1.0000000000 0.9701342396 0.3590340951 0.5000000000  Biso 1.0 Tl
Tl19 1.0000000000 0.1409659049 0.4701342396 0.0000000000  Biso 1.0 Tl
Tl20 1.0000000000 0.8590340951 0.5298657604 0.0000000000  Biso 1.0 Tl
