# AFLOW.org Repositories
# Ba1Mg2Si2   [BCT,BCT2,tI10] (STD_PRIM do
data_Ba1Mg2Si2
_pd_phase_name Ba1Mg2Si2
_cell_length_a  6.4402060542
_cell_length_b  6.4402060542
_cell_length_c  6.4402060542
_cell_angle_alpha  137.5982720888
_cell_angle_beta  137.5982720888
_cell_angle_gamma  61.5188238400
_symmetry_space_group_name_H-M  'P1'
_symmetry_Int_Tables_Number  1
loop_
_symmetry_equiv_pos_site_id
_symmetry_equiv_pos_as_xyz
  1  x,y,z
loop_
 _atom_site_label
 _atom_site_occupancy
 _atom_site_fract_x
 _atom_site_fract_y
 _atom_site_fract_z
 _atom_site_thermal_displace_type
 _atom_site_B_iso_or_equiv
 _atom_site_type_symbol
Ba1 1.0000000000 0.0000000000 0.0000000000 0.0000000000  Biso 1.0 Ba
Mg2 1.0000000000 0.2500000000 0.7500000000 0.5000000000  Biso 1.0 Mg
Mg3 1.0000000000 0.7500000000 0.2500000000 0.5000000000  Biso 1.0 Mg
Si4 1.0000000000 0.6119030966 0.6119030966 0.0000000000  Biso 1.0 Si
Si5 1.0000000000 0.3880969034 0.3880969034 0.0000000000  Biso 1.0 Si
