# AFLOW.org Repositories
# Ba1Te2   [BCT,BCT2,tI12] (STD_PRIM doi:1
data_Ba1Te2
_pd_phase_name Ba1Te2
_cell_length_a  6.8634196228
_cell_length_b  6.8634196228
_cell_length_c  6.8634196228
_cell_angle_alpha  116.3378956123
_cell_angle_beta  116.3378956123
_cell_angle_gamma  96.4693639191
_symmetry_space_group_name_H-M  'P1'
_symmetry_Int_Tables_Number  1
loop_
_symmetry_equiv_pos_site_id
_symmetry_equiv_pos_as_xyz
  1  x,y,z
loop_
 _atom_site_label
 _atom_site_occupancy
 _atom_site_fract_x
 _atom_site_fract_y
 _atom_site_fract_z
 _atom_site_thermal_displace_type
 _atom_site_B_iso_or_equiv
 _atom_site_type_symbol
Ba1 1.0000000000 0.2500000000 0.2500000000 0.0000000000  Biso 1.0 Ba
Ba2 1.0000000000 0.7500000000 0.7500000000 0.0000000000  Biso 1.0 Ba
Te3 1.0000000000 0.1381016427 0.3618983573 0.5000000000  Biso 1.0 Te
Te4 1.0000000000 0.8618983573 0.6381016427 0.5000000000  Biso 1.0 Te
Te5 1.0000000000 0.3618983573 0.8618983573 0.2237967146  Biso 1.0 Te
Te6 1.0000000000 0.6381016427 0.1381016427 0.7762032854  Biso 1.0 Te
