# AFLOW.org Repositories
# Ba6C60   [BCC,BCC,cI132] (STD_PRIM doi:1
data_Ba6C60
_pd_phase_name Ba6C60
_cell_length_a  9.7833036846
_cell_length_b  9.7833036846
_cell_length_c  9.7833036846
_cell_angle_alpha  109.4712206345
_cell_angle_beta  109.4712206345
_cell_angle_gamma  109.4712206345
_symmetry_space_group_name_H-M  'P1'
_symmetry_Int_Tables_Number  1
loop_
_symmetry_equiv_pos_site_id
_symmetry_equiv_pos_as_xyz
  1  x,y,z
loop_
 _atom_site_label
 _atom_site_occupancy
 _atom_site_fract_x
 _atom_site_fract_y
 _atom_site_fract_z
 _atom_site_thermal_displace_type
 _atom_site_B_iso_or_equiv
 _atom_site_type_symbol
Ba1 1.0000000000 0.5000000000 0.7214921611 0.2214921611  Biso 1.0 Ba
Ba2 1.0000000000 0.5000000000 0.2785078389 0.7785078389  Biso 1.0 Ba
Ba3 1.0000000000 0.2785078389 0.7785078389 0.5000000000  Biso 1.0 Ba
Ba4 1.0000000000 0.7214921611 0.2214921611 0.5000000000  Biso 1.0 Ba
Ba5 1.0000000000 0.7785078389 0.5000000000 0.2785078389  Biso 1.0 Ba
Ba6 1.0000000000 0.2214921611 0.5000000000 0.7214921611  Biso 1.0 Ba
C7 1.0000000000 0.0643142942 0.7527714975 0.6884572033  Biso 1.0 C
C8 1.0000000000 0.9356857058 0.6241429092 0.6884572033  Biso 1.0 C
C9 1.0000000000 0.9356857058 0.2472285025 0.3115427967  Biso 1.0 C
C10 1.0000000000 0.0643142942 0.3758570908 0.3115427967  Biso 1.0 C
C11 1.0000000000 0.3758570908 0.3115427967 0.0643142942  Biso 1.0 C
C12 1.0000000000 0.2472285025 0.3115427967 0.9356857058  Biso 1.0 C
C13 1.0000000000 0.6241429092 0.6884572033 0.9356857058  Biso 1.0 C
C14 1.0000000000 0.7527714975 0.6884572033 0.0643142942  Biso 1.0 C
C15 1.0000000000 0.3115427967 0.9356857058 0.2472285025  Biso 1.0 C
C16 1.0000000000 0.3115427967 0.0643142942 0.3758570908  Biso 1.0 C
C17 1.0000000000 0.6884572033 0.0643142942 0.7527714975  Biso 1.0 C
C18 1.0000000000 0.6884572033 0.9356857058 0.6241429092  Biso 1.0 C
C19 1.0000000000 0.2321149631 0.8561875836 0.8319232169  Biso 1.0 C
C20 1.0000000000 0.7678850369 0.5998082538 0.6240726205  Biso 1.0 C
C21 1.0000000000 0.9757356333 0.1438124164 0.3759273795  Biso 1.0 C
C22 1.0000000000 0.0242643667 0.4001917462 0.1680767831  Biso 1.0 C
C23 1.0000000000 0.4001917462 0.1680767831 0.0242643667  Biso 1.0 C
C24 1.0000000000 0.1438124164 0.3759273795 0.9757356333  Biso 1.0 C
C25 1.0000000000 0.5998082538 0.6240726205 0.7678850369  Biso 1.0 C
C26 1.0000000000 0.8561875836 0.8319232169 0.2321149631  Biso 1.0 C
C27 1.0000000000 0.3759273795 0.9757356333 0.1438124164  Biso 1.0 C
C28 1.0000000000 0.1680767831 0.0242643667 0.4001917462  Biso 1.0 C
C29 1.0000000000 0.8319232169 0.2321149631 0.8561875836  Biso 1.0 C
C30 1.0000000000 0.6240726205 0.7678850369 0.5998082538  Biso 1.0 C
C31 1.0000000000 0.7678850369 0.1438124164 0.1680767831  Biso 1.0 C
C32 1.0000000000 0.2321149631 0.4001917462 0.3759273795  Biso 1.0 C
C33 1.0000000000 0.0242643667 0.8561875836 0.6240726205  Biso 1.0 C
C34 1.0000000000 0.9757356333 0.5998082538 0.8319232169  Biso 1.0 C
C35 1.0000000000 0.5998082538 0.8319232169 0.9757356333  Biso 1.0 C
C36 1.0000000000 0.8561875836 0.6240726205 0.0242643667  Biso 1.0 C
C37 1.0000000000 0.4001917462 0.3759273795 0.2321149631  Biso 1.0 C
C38 1.0000000000 0.1438124164 0.1680767831 0.7678850369  Biso 1.0 C
C39 1.0000000000 0.6240726205 0.0242643667 0.8561875836  Biso 1.0 C
C40 1.0000000000 0.8319232169 0.9757356333 0.5998082538  Biso 1.0 C
C41 1.0000000000 0.1680767831 0.7678850369 0.1438124164  Biso 1.0 C
C42 1.0000000000 0.3759273795 0.2321149631 0.4001917462  Biso 1.0 C
C43 1.0000000000 0.2704479089 0.8332623729 0.9763438774  Biso 1.0 C
C44 1.0000000000 0.7295520911 0.7058959685 0.5628144640  Biso 1.0 C
C45 1.0000000000 0.1430815045 0.1667376271 0.4371855360  Biso 1.0 C
C46 1.0000000000 0.8569184955 0.2941040315 0.0236561226  Biso 1.0 C
C47 1.0000000000 0.2941040315 0.0236561226 0.8569184955  Biso 1.0 C
C48 1.0000000000 0.1667376271 0.4371855360 0.1430815045  Biso 1.0 C
C49 1.0000000000 0.7058959685 0.5628144640 0.7295520911  Biso 1.0 C
C50 1.0000000000 0.8332623729 0.9763438774 0.2704479089  Biso 1.0 C
C51 1.0000000000 0.4371855360 0.1430815045 0.1667376271  Biso 1.0 C
C52 1.0000000000 0.0236561226 0.8569184955 0.2941040315  Biso 1.0 C
C53 1.0000000000 0.9763438774 0.2704479089 0.8332623729  Biso 1.0 C
C54 1.0000000000 0.5628144640 0.7295520911 0.7058959685  Biso 1.0 C
C55 1.0000000000 0.7295520911 0.1667376271 0.0236561226  Biso 1.0 C
C56 1.0000000000 0.2704479089 0.2941040315 0.4371855360  Biso 1.0 C
C57 1.0000000000 0.8569184955 0.8332623729 0.5628144640  Biso 1.0 C
C58 1.0000000000 0.1430815045 0.7058959685 0.9763438774  Biso 1.0 C
C59 1.0000000000 0.7058959685 0.9763438774 0.1430815045  Biso 1.0 C
C60 1.0000000000 0.8332623729 0.5628144640 0.8569184955  Biso 1.0 C
C61 1.0000000000 0.2941040315 0.4371855360 0.2704479089  Biso 1.0 C
C62 1.0000000000 0.1667376271 0.0236561226 0.7295520911  Biso 1.0 C
C63 1.0000000000 0.5628144640 0.8569184955 0.8332623729  Biso 1.0 C
C64 1.0000000000 0.9763438774 0.1430815045 0.7058959685  Biso 1.0 C
C65 1.0000000000 0.0236561226 0.7295520911 0.1667376271  Biso 1.0 C
C66 1.0000000000 0.4371855360 0.2704479089 0.2941040315  Biso 1.0 C
