# AFLOW.org Repositories
# Ba8Si46   [CUB,CUB,cP54] (STD_PRIM doi:1
data_Ba8Si46
_pd_phase_name Ba8Si46
_cell_length_a  10.3940599002
_cell_length_b  10.3940599002
_cell_length_c  10.3940599002
_cell_angle_alpha  90.0000000000
_cell_angle_beta  90.0000000000
_cell_angle_gamma  90.0000000000
_symmetry_space_group_name_H-M  'P1'
_symmetry_Int_Tables_Number  1
loop_
_symmetry_equiv_pos_site_id
_symmetry_equiv_pos_as_xyz
  1  x,y,z
loop_
 _atom_site_label
 _atom_site_occupancy
 _atom_site_fract_x
 _atom_site_fract_y
 _atom_site_fract_z
 _atom_site_thermal_displace_type
 _atom_site_B_iso_or_equiv
 _atom_site_type_symbol
Ba1 1.0000000000 0.0000000000 0.0000000000 0.0000000000  Biso 1.0 Ba
Ba2 1.0000000000 0.5000000000 0.5000000000 0.5000000000  Biso 1.0 Ba
Ba3 1.0000000000 0.7500000000 0.5000000000 0.0000000000  Biso 1.0 Ba
Ba4 1.0000000000 0.2500000000 0.5000000000 0.0000000000  Biso 1.0 Ba
Ba5 1.0000000000 0.0000000000 0.7500000000 0.5000000000  Biso 1.0 Ba
Ba6 1.0000000000 0.0000000000 0.2500000000 0.5000000000  Biso 1.0 Ba
Ba7 1.0000000000 0.5000000000 0.0000000000 0.2500000000  Biso 1.0 Ba
Ba8 1.0000000000 0.5000000000 0.0000000000 0.7500000000  Biso 1.0 Ba
Si9 1.0000000000 0.7500000000 0.0000000000 0.5000000000  Biso 1.0 Si
Si10 1.0000000000 0.2500000000 0.0000000000 0.5000000000  Biso 1.0 Si
Si11 1.0000000000 0.5000000000 0.7500000000 0.0000000000  Biso 1.0 Si
Si12 1.0000000000 0.5000000000 0.2500000000 0.0000000000  Biso 1.0 Si
Si13 1.0000000000 0.0000000000 0.5000000000 0.2500000000  Biso 1.0 Si
Si14 1.0000000000 0.0000000000 0.5000000000 0.7500000000  Biso 1.0 Si
Si15 1.0000000000 0.8147648430 0.8147648430 0.1852351570  Biso 1.0 Si
Si16 1.0000000000 0.1852351570 0.1852351570 0.1852351570  Biso 1.0 Si
Si17 1.0000000000 0.1852351570 0.8147648430 0.8147648430  Biso 1.0 Si
Si18 1.0000000000 0.8147648430 0.1852351570 0.8147648430  Biso 1.0 Si
Si19 1.0000000000 0.3147648430 0.3147648430 0.3147648430  Biso 1.0 Si
Si20 1.0000000000 0.6852351570 0.6852351570 0.3147648430  Biso 1.0 Si
Si21 1.0000000000 0.3147648430 0.6852351570 0.6852351570  Biso 1.0 Si
Si22 1.0000000000 0.6852351570 0.3147648430 0.6852351570  Biso 1.0 Si
Si23 1.0000000000 0.1852351570 0.1852351570 0.8147648430  Biso 1.0 Si
Si24 1.0000000000 0.8147648430 0.8147648430 0.8147648430  Biso 1.0 Si
Si25 1.0000000000 0.8147648430 0.1852351570 0.1852351570  Biso 1.0 Si
Si26 1.0000000000 0.1852351570 0.8147648430 0.1852351570  Biso 1.0 Si
Si27 1.0000000000 0.6852351570 0.6852351570 0.6852351570  Biso 1.0 Si
Si28 1.0000000000 0.3147648430 0.3147648430 0.6852351570  Biso 1.0 Si
Si29 1.0000000000 0.6852351570 0.3147648430 0.3147648430  Biso 1.0 Si
Si30 1.0000000000 0.3147648430 0.6852351570 0.3147648430  Biso 1.0 Si
Si31 1.0000000000 0.0000000000 0.6934312776 0.1207705791  Biso 1.0 Si
Si32 1.0000000000 0.0000000000 0.3065687224 0.1207705791  Biso 1.0 Si
Si33 1.0000000000 0.0000000000 0.6934312776 0.8792294209  Biso 1.0 Si
Si34 1.0000000000 0.0000000000 0.3065687224 0.8792294209  Biso 1.0 Si
Si35 1.0000000000 0.8792294209 0.0000000000 0.3065687224  Biso 1.0 Si
Si36 1.0000000000 0.8792294209 0.0000000000 0.6934312776  Biso 1.0 Si
Si37 1.0000000000 0.1207705791 0.0000000000 0.3065687224  Biso 1.0 Si
Si38 1.0000000000 0.1207705791 0.0000000000 0.6934312776  Biso 1.0 Si
Si39 1.0000000000 0.6934312776 0.8792294209 0.0000000000  Biso 1.0 Si
Si40 1.0000000000 0.3065687224 0.8792294209 0.0000000000  Biso 1.0 Si
Si41 1.0000000000 0.6934312776 0.1207705791 0.0000000000  Biso 1.0 Si
Si42 1.0000000000 0.3065687224 0.1207705791 0.0000000000  Biso 1.0 Si
Si43 1.0000000000 0.1934312776 0.5000000000 0.3792294209  Biso 1.0 Si
Si44 1.0000000000 0.8065687224 0.5000000000 0.3792294209  Biso 1.0 Si
Si45 1.0000000000 0.1934312776 0.5000000000 0.6207705791  Biso 1.0 Si
Si46 1.0000000000 0.8065687224 0.5000000000 0.6207705791  Biso 1.0 Si
Si47 1.0000000000 0.5000000000 0.3792294209 0.1934312776  Biso 1.0 Si
Si48 1.0000000000 0.5000000000 0.3792294209 0.8065687224  Biso 1.0 Si
Si49 1.0000000000 0.5000000000 0.6207705791 0.1934312776  Biso 1.0 Si
Si50 1.0000000000 0.5000000000 0.6207705791 0.8065687224  Biso 1.0 Si
Si51 1.0000000000 0.3792294209 0.1934312776 0.5000000000  Biso 1.0 Si
Si52 1.0000000000 0.3792294209 0.8065687224 0.5000000000  Biso 1.0 Si
Si53 1.0000000000 0.6207705791 0.1934312776 0.5000000000  Biso 1.0 Si
Si54 1.0000000000 0.6207705791 0.8065687224 0.5000000000  Biso 1.0 Si
