# AFLOW.org Repositories
# Be1Li1Sb1   [HEX,HEX,hP6] (STD_PRIM doi:
data_Be1Li1Sb1
_pd_phase_name Be1Li1Sb1
_cell_length_a  4.1786532398
_cell_length_b  4.1786532398
_cell_length_c  6.7927575610
_cell_angle_alpha  90.0000000000
_cell_angle_beta  90.0000000000
_cell_angle_gamma  120.0000000000
_symmetry_space_group_name_H-M  'P1'
_symmetry_Int_Tables_Number  1
loop_
_symmetry_equiv_pos_site_id
_symmetry_equiv_pos_as_xyz
  1  x,y,z
loop_
 _atom_site_label
 _atom_site_occupancy
 _atom_site_fract_x
 _atom_site_fract_y
 _atom_site_fract_z
 _atom_site_thermal_displace_type
 _atom_site_B_iso_or_equiv
 _atom_site_type_symbol
Be1 1.0000000000 0.3333292785 0.6666546600 0.0065862190  Biso 1.0 Be
Be2 1.0000000000 0.6666708795 0.3333455959 0.5065872142  Biso 1.0 Be
Li3 1.0000000000 0.0000000000 0.0000000000 0.1537565353  Biso 1.0 Li
Li4 1.0000000000 0.0000000000 0.0000000000 0.6537565177  Biso 1.0 Li
Sb5 1.0000000000 0.3333304657 0.6666558577 0.3896567583  Biso 1.0 Sb
Sb6 1.0000000000 0.6666693506 0.3333440253 0.8896567555  Biso 1.0 Sb
