# AFLOW.org Repositories
# Be1Li1P1   [TET,TET,tP6] (STD_PRIM doi:1
data_Be1Li1P1
_pd_phase_name Be1Li1P1
_cell_length_a  3.6118313552
_cell_length_b  3.6118313552
_cell_length_c  6.0150759387
_cell_angle_alpha  90.0000000000
_cell_angle_beta  90.0000000000
_cell_angle_gamma  90.0000000000
_symmetry_space_group_name_H-M  'P1'
_symmetry_Int_Tables_Number  1
loop_
_symmetry_equiv_pos_site_id
_symmetry_equiv_pos_as_xyz
  1  x,y,z
loop_
 _atom_site_label
 _atom_site_occupancy
 _atom_site_fract_x
 _atom_site_fract_y
 _atom_site_fract_z
 _atom_site_thermal_displace_type
 _atom_site_B_iso_or_equiv
 _atom_site_type_symbol
Be1 1.0000000000 0.7500000000 0.2500000000 0.0000000000  Biso 1.0 Be
Be2 1.0000000000 0.2500000000 0.7500000000 0.0000000000  Biso 1.0 Be
Li3 1.0000000000 0.2500000000 0.2500000000 0.6485557846  Biso 1.0 Li
Li4 1.0000000000 0.7500000000 0.7500000000 0.3514442154  Biso 1.0 Li
P5 1.0000000000 0.2500000000 0.2500000000 0.2176742524  Biso 1.0 P
P6 1.0000000000 0.7500000000 0.7500000000 0.7823257476  Biso 1.0 P
