# AFLOW.org Repositories
# Be2Cs1F5   [CUB,CUB,cP32] (STD_PRIM doi:
data_Be2Cs1F5
_pd_phase_name Be2Cs1F5
_cell_length_a  8.0714158831
_cell_length_b  8.0714158831
_cell_length_c  8.0714158831
_cell_angle_alpha  90.0000000000
_cell_angle_beta  90.0000000000
_cell_angle_gamma  90.0000000000
_symmetry_space_group_name_H-M  'P1'
_symmetry_Int_Tables_Number  1
loop_
_symmetry_equiv_pos_site_id
_symmetry_equiv_pos_as_xyz
  1  x,y,z
loop_
 _atom_site_label
 _atom_site_occupancy
 _atom_site_fract_x
 _atom_site_fract_y
 _atom_site_fract_z
 _atom_site_thermal_displace_type
 _atom_site_B_iso_or_equiv
 _atom_site_type_symbol
Be1 1.0000000000 0.9002016557 0.9002016557 0.0997983443  Biso 1.0 Be
Be2 1.0000000000 0.5997983443 0.0997983443 0.5997983443  Biso 1.0 Be
Be3 1.0000000000 0.0997983443 0.4002016557 0.4002016557  Biso 1.0 Be
Be4 1.0000000000 0.4002016557 0.5997983443 0.9002016557  Biso 1.0 Be
Be5 1.0000000000 0.1502016557 0.6502016557 0.1502016557  Biso 1.0 Be
Be6 1.0000000000 0.3497983443 0.3497983443 0.6502016557  Biso 1.0 Be
Be7 1.0000000000 0.6502016557 0.8497983443 0.8497983443  Biso 1.0 Be
Be8 1.0000000000 0.8497983443 0.1502016557 0.3497983443  Biso 1.0 Be
Cs9 1.0000000000 0.6250000000 0.6250000000 0.3750000000  Biso 1.0 Cs
Cs10 1.0000000000 0.8750000000 0.3750000000 0.8750000000  Biso 1.0 Cs
Cs11 1.0000000000 0.3750000000 0.1250000000 0.1250000000  Biso 1.0 Cs
Cs12 1.0000000000 0.1250000000 0.8750000000 0.6250000000  Biso 1.0 Cs
F13 1.0000000000 0.0072740454 0.0072740454 0.9927259546  Biso 1.0 F
F14 1.0000000000 0.4927259546 0.9927259546 0.4927259546  Biso 1.0 F
F15 1.0000000000 0.9927259546 0.5072740454 0.5072740454  Biso 1.0 F
F16 1.0000000000 0.5072740454 0.4927259546 0.0072740454  Biso 1.0 F
F17 1.0000000000 0.2572740454 0.7572740454 0.2572740454  Biso 1.0 F
F18 1.0000000000 0.2427259546 0.2427259546 0.7572740454  Biso 1.0 F
F19 1.0000000000 0.7572740454 0.7427259546 0.7427259546  Biso 1.0 F
F20 1.0000000000 0.7427259546 0.2572740454 0.2427259546  Biso 1.0 F
F21 1.0000000000 0.8750000000 0.9669328214 0.2830671786  Biso 1.0 F
F22 1.0000000000 0.6250000000 0.0330671786 0.7830671786  Biso 1.0 F
F23 1.0000000000 0.1250000000 0.4669328214 0.2169328214  Biso 1.0 F
F24 1.0000000000 0.3750000000 0.5330671786 0.7169328214  Biso 1.0 F
F25 1.0000000000 0.7169328214 0.8750000000 0.0330671786  Biso 1.0 F
F26 1.0000000000 0.2169328214 0.6250000000 0.9669328214  Biso 1.0 F
F27 1.0000000000 0.7830671786 0.1250000000 0.5330671786  Biso 1.0 F
F28 1.0000000000 0.2830671786 0.3750000000 0.4669328214  Biso 1.0 F
F29 1.0000000000 0.9669328214 0.7169328214 0.1250000000  Biso 1.0 F
F30 1.0000000000 0.0330671786 0.2169328214 0.3750000000  Biso 1.0 F
F31 1.0000000000 0.4669328214 0.7830671786 0.8750000000  Biso 1.0 F
F32 1.0000000000 0.5330671786 0.2830671786 0.6250000000  Biso 1.0 F
