# AFLOW.org Repositories
# Bi1Cs3O3   [CUB,CUB,cP28] (STD_PRIM doi:
data_Bi1Cs3O3
_pd_phase_name Bi1Cs3O3
_cell_length_a  9.4423249948
_cell_length_b  9.4423249948
_cell_length_c  9.4423249948
_cell_angle_alpha  90.0000000000
_cell_angle_beta  90.0000000000
_cell_angle_gamma  90.0000000000
_symmetry_space_group_name_H-M  'P1'
_symmetry_Int_Tables_Number  1
loop_
_symmetry_equiv_pos_site_id
_symmetry_equiv_pos_as_xyz
  1  x,y,z
loop_
 _atom_site_label
 _atom_site_occupancy
 _atom_site_fract_x
 _atom_site_fract_y
 _atom_site_fract_z
 _atom_site_thermal_displace_type
 _atom_site_B_iso_or_equiv
 _atom_site_type_symbol
Bi1 1.0000000000 0.7441107919 0.7441107919 0.2558892081  Biso 1.0 Bi
Bi2 1.0000000000 0.7558892081 0.2558892081 0.7558892081  Biso 1.0 Bi
Bi3 1.0000000000 0.2558892081 0.2441107919 0.2441107919  Biso 1.0 Bi
Bi4 1.0000000000 0.2441107919 0.7558892081 0.7441107919  Biso 1.0 Bi
Cs5 1.0000000000 0.2358284695 0.2358284695 0.7641715305  Biso 1.0 Cs
Cs6 1.0000000000 0.2641715305 0.7641715305 0.2641715305  Biso 1.0 Cs
Cs7 1.0000000000 0.7641715305 0.7358284695 0.7358284695  Biso 1.0 Cs
Cs8 1.0000000000 0.7358284695 0.2641715305 0.2358284695  Biso 1.0 Cs
Cs9 1.0000000000 0.4689168549 0.4689168549 0.5310831451  Biso 1.0 Cs
Cs10 1.0000000000 0.0310831451 0.5310831451 0.0310831451  Biso 1.0 Cs
Cs11 1.0000000000 0.5310831451 0.9689168549 0.9689168549  Biso 1.0 Cs
Cs12 1.0000000000 0.9689168549 0.0310831451 0.4689168549  Biso 1.0 Cs
Cs13 1.0000000000 0.9718812926 0.9718812926 0.0281187074  Biso 1.0 Cs
Cs14 1.0000000000 0.5281187074 0.0281187074 0.5281187074  Biso 1.0 Cs
Cs15 1.0000000000 0.0281187074 0.4718812926 0.4718812926  Biso 1.0 Cs
Cs16 1.0000000000 0.4718812926 0.5281187074 0.9718812926  Biso 1.0 Cs
O17 1.0000000000 0.0378686022 0.2449045803 0.2060726449  Biso 1.0 O
O18 1.0000000000 0.4621313978 0.7550954197 0.7060726449  Biso 1.0 O
O19 1.0000000000 0.9621313978 0.7449045803 0.2939273551  Biso 1.0 O
O20 1.0000000000 0.5378686022 0.2550954197 0.7939273551  Biso 1.0 O
O21 1.0000000000 0.7939273551 0.0378686022 0.7550954197  Biso 1.0 O
O22 1.0000000000 0.2939273551 0.4621313978 0.2449045803  Biso 1.0 O
O23 1.0000000000 0.7060726449 0.9621313978 0.2550954197  Biso 1.0 O
O24 1.0000000000 0.2060726449 0.5378686022 0.7449045803  Biso 1.0 O
O25 1.0000000000 0.2449045803 0.7939273551 0.9621313978  Biso 1.0 O
O26 1.0000000000 0.7550954197 0.2939273551 0.5378686022  Biso 1.0 O
O27 1.0000000000 0.7449045803 0.7060726449 0.0378686022  Biso 1.0 O
O28 1.0000000000 0.2550954197 0.2060726449 0.4621313978  Biso 1.0 O
