# AFLOW.org Repositories
# Bi1O3Rh1   [ORC,ORC,oP20] (STD_PRIM doi:
data_Bi1O3Rh1
_pd_phase_name Bi1O3Rh1
_cell_length_a  5.4539559586
_cell_length_b  5.9040278743
_cell_length_c  7.8533214664
_cell_angle_alpha  90.0000000000
_cell_angle_beta  90.0000000000
_cell_angle_gamma  90.0000000000
_symmetry_space_group_name_H-M  'P1'
_symmetry_Int_Tables_Number  1
loop_
_symmetry_equiv_pos_site_id
_symmetry_equiv_pos_as_xyz
  1  x,y,z
loop_
 _atom_site_label
 _atom_site_occupancy
 _atom_site_fract_x
 _atom_site_fract_y
 _atom_site_fract_z
 _atom_site_thermal_displace_type
 _atom_site_B_iso_or_equiv
 _atom_site_type_symbol
Bi1 1.0000000000 0.0139053823 0.0634290050 0.7500000000  Biso 1.0 Bi
Bi2 1.0000000000 0.5139053823 0.4365709950 0.2500000000  Biso 1.0 Bi
Bi3 1.0000000000 0.9860946177 0.9365709950 0.2500000000  Biso 1.0 Bi
Bi4 1.0000000000 0.4860946177 0.5634290050 0.7500000000  Biso 1.0 Bi
O5 1.0000000000 0.8822719096 0.4577142305 0.7500000000  Biso 1.0 O
O6 1.0000000000 0.3822719096 0.0422857695 0.2500000000  Biso 1.0 O
O7 1.0000000000 0.1177280904 0.5422857695 0.2500000000  Biso 1.0 O
O8 1.0000000000 0.6177280904 0.9577142305 0.7500000000  Biso 1.0 O
O9 1.0000000000 0.3252820856 0.3129556202 0.9541133267  Biso 1.0 O
O10 1.0000000000 0.8252820856 0.1870443798 0.0458866733  Biso 1.0 O
O11 1.0000000000 0.6747179144 0.6870443798 0.4541133267  Biso 1.0 O
O12 1.0000000000 0.1747179144 0.8129556202 0.5458866733  Biso 1.0 O
O13 1.0000000000 0.6747179144 0.6870443798 0.0458866733  Biso 1.0 O
O14 1.0000000000 0.1747179144 0.8129556202 0.9541133267  Biso 1.0 O
O15 1.0000000000 0.3252820856 0.3129556202 0.5458866733  Biso 1.0 O
O16 1.0000000000 0.8252820856 0.1870443798 0.4541133267  Biso 1.0 O
Rh17 1.0000000000 0.5000000000 0.0000000000 0.0000000000  Biso 1.0 Rh
Rh18 1.0000000000 0.0000000000 0.5000000000 0.0000000000  Biso 1.0 Rh
Rh19 1.0000000000 0.5000000000 0.0000000000 0.5000000000  Biso 1.0 Rh
Rh20 1.0000000000 0.0000000000 0.5000000000 0.5000000000  Biso 1.0 Rh
