# AFLOW.org Repositories
# Bi1Pb1Pd2   [ORCC,ORCC,oS32] (STD_PRIM d
data_Bi1Pb1Pd2
_pd_phase_name Bi1Pb1Pd2
_cell_length_a  5.7410369311
_cell_length_b  5.7410369311
_cell_length_c  10.6597567705
_cell_angle_alpha  90.0000000000
_cell_angle_beta  90.0000000000
_cell_angle_gamma  101.6763244708
_symmetry_space_group_name_H-M  'P1'
_symmetry_Int_Tables_Number  1
loop_
_symmetry_equiv_pos_site_id
_symmetry_equiv_pos_as_xyz
  1  x,y,z
loop_
 _atom_site_label
 _atom_site_occupancy
 _atom_site_fract_x
 _atom_site_fract_y
 _atom_site_fract_z
 _atom_site_thermal_displace_type
 _atom_site_B_iso_or_equiv
 _atom_site_type_symbol
Bi1 1.0000000000 0.6038411149 0.1512306638 0.2871024365  Biso 1.0 Bi
Bi2 1.0000000000 0.3961588851 0.8487693362 0.7871024365  Biso 1.0 Bi
Bi3 1.0000000000 0.8487693362 0.3961588851 0.7871024365  Biso 1.0 Bi
Bi4 1.0000000000 0.1512306638 0.6038411149 0.2871024365  Biso 1.0 Bi
Pb5 1.0000000000 0.3645153024 0.3645153024 0.0105136852  Biso 1.0 Pb
Pb6 1.0000000000 0.6354846976 0.6354846976 0.5105136852  Biso 1.0 Pb
Pb7 1.0000000000 0.8776401197 0.8776401197 0.0013655644  Biso 1.0 Pb
Pb8 1.0000000000 0.1223598803 0.1223598803 0.5013655644  Biso 1.0 Pb
Pd9 1.0000000000 0.9157676119 0.9157676119 0.7326153529  Biso 1.0 Pd
Pd10 1.0000000000 0.0842323881 0.0842323881 0.2326153529  Biso 1.0 Pd
Pd11 1.0000000000 0.3285152123 0.3285152123 0.7378409966  Biso 1.0 Pd
Pd12 1.0000000000 0.6714847877 0.6714847877 0.2378409966  Biso 1.0 Pd
Pd13 1.0000000000 0.6242585991 0.1341520056 0.5637297639  Biso 1.0 Pd
Pd14 1.0000000000 0.3757414009 0.8658479944 0.0637297639  Biso 1.0 Pd
Pd15 1.0000000000 0.8658479944 0.3757414009 0.0637297639  Biso 1.0 Pd
Pd16 1.0000000000 0.1341520056 0.6242585991 0.5637297639  Biso 1.0 Pd
