# AFLOW.org Repositories
# Bi2Pd5   [MCLC,MCLC1,mS28] (STD_PRIM doi
data_Bi2Pd5
_pd_phase_name Bi2Pd5
_cell_length_a  7.7521931796
_cell_length_b  7.7521931796
_cell_length_c  6.8384311400
_cell_angle_alpha  64.9606070205
_cell_angle_beta  64.9606070205
_cell_angle_gamma  44.3661780946
_symmetry_space_group_name_H-M  'P1'
_symmetry_Int_Tables_Number  1
loop_
_symmetry_equiv_pos_site_id
_symmetry_equiv_pos_as_xyz
  1  x,y,z
loop_
 _atom_site_label
 _atom_site_occupancy
 _atom_site_fract_x
 _atom_site_fract_y
 _atom_site_fract_z
 _atom_site_thermal_displace_type
 _atom_site_B_iso_or_equiv
 _atom_site_type_symbol
Bi1 1.0000000000 0.1311212909 0.1311212909 0.6415481126  Biso 1.0 Bi
Bi2 1.0000000000 0.8688787091 0.8688787091 0.3584518874  Biso 1.0 Bi
Bi3 1.0000000000 0.4002787928 0.4002787928 0.9036381170  Biso 1.0 Bi
Bi4 1.0000000000 0.5997212072 0.5997212072 0.0963618830  Biso 1.0 Bi
Pd5 1.0000000000 0.7499371316 0.2500628684 0.5000000000  Biso 1.0 Pd
Pd6 1.0000000000 0.2500628684 0.7499371316 0.5000000000  Biso 1.0 Pd
Pd7 1.0000000000 0.0918135822 0.0918135822 0.0843921145  Biso 1.0 Pd
Pd8 1.0000000000 0.9081864178 0.9081864178 0.9156078855  Biso 1.0 Pd
Pd9 1.0000000000 0.3694499617 0.3694499617 0.3512155363  Biso 1.0 Pd
Pd10 1.0000000000 0.6305500383 0.6305500383 0.6487844637  Biso 1.0 Pd
Pd11 1.0000000000 0.0220627856 0.5257124335 0.7647847479  Biso 1.0 Pd
Pd12 1.0000000000 0.4742875665 0.9779372144 0.2352152521  Biso 1.0 Pd
Pd13 1.0000000000 0.9779372144 0.4742875665 0.2352152521  Biso 1.0 Pd
Pd14 1.0000000000 0.5257124335 0.0220627856 0.7647847479  Biso 1.0 Pd
