# AFLOW.org Repositories
# Bi3Ni1   [ORC,ORC,oP16] (STD_PRIM doi:10
data_Bi3Ni1
_pd_phase_name Bi3Ni1
_cell_length_a  4.1545217591
_cell_length_b  8.9097523997
_cell_length_c  11.4665566982
_cell_angle_alpha  90.0000000000
_cell_angle_beta  90.0000000000
_cell_angle_gamma  90.0000000000
_symmetry_space_group_name_H-M  'P1'
_symmetry_Int_Tables_Number  1
loop_
_symmetry_equiv_pos_site_id
_symmetry_equiv_pos_as_xyz
  1  x,y,z
loop_
 _atom_site_label
 _atom_site_occupancy
 _atom_site_fract_x
 _atom_site_fract_y
 _atom_site_fract_z
 _atom_site_thermal_displace_type
 _atom_site_B_iso_or_equiv
 _atom_site_type_symbol
Bi1 1.0000000000 0.2500000000 0.4108462574 0.8229042441  Biso 1.0 Bi
Bi2 1.0000000000 0.7500000000 0.0891537426 0.3229042441  Biso 1.0 Bi
Bi3 1.0000000000 0.7500000000 0.5891537426 0.1770957559  Biso 1.0 Bi
Bi4 1.0000000000 0.2500000000 0.9108462574 0.6770957559  Biso 1.0 Bi
Bi5 1.0000000000 0.2500000000 0.2991595032 0.1083375160  Biso 1.0 Bi
Bi6 1.0000000000 0.7500000000 0.2008404968 0.6083375160  Biso 1.0 Bi
Bi7 1.0000000000 0.7500000000 0.7008404968 0.8916624840  Biso 1.0 Bi
Bi8 1.0000000000 0.2500000000 0.7991595032 0.3916624840  Biso 1.0 Bi
Bi9 1.0000000000 0.2500000000 0.3804544011 0.4087106339  Biso 1.0 Bi
Bi10 1.0000000000 0.7500000000 0.1195455989 0.9087106339  Biso 1.0 Bi
Bi11 1.0000000000 0.7500000000 0.6195455989 0.5912893661  Biso 1.0 Bi
Bi12 1.0000000000 0.2500000000 0.8804544011 0.0912893661  Biso 1.0 Bi
Ni13 1.0000000000 0.2500000000 0.0908387611 0.4806944469  Biso 1.0 Ni
Ni14 1.0000000000 0.7500000000 0.4091612389 0.9806944469  Biso 1.0 Ni
Ni15 1.0000000000 0.7500000000 0.9091612389 0.5193055531  Biso 1.0 Ni
Ni16 1.0000000000 0.2500000000 0.5908387611 0.0193055531  Biso 1.0 Ni
