# AFLOW.org Repositories
# Br3Cs1Mg1   [HEX,HEX,hP10] (STD_PRIM doi
data_Br3Cs1Mg1
_pd_phase_name Br3Cs1Mg1
_cell_length_a  7.8064738152
_cell_length_b  7.8064738152
_cell_length_c  6.6130825443
_cell_angle_alpha  90.0000000000
_cell_angle_beta  90.0000000000
_cell_angle_gamma  120.0000000000
_symmetry_space_group_name_H-M  'P1'
_symmetry_Int_Tables_Number  1
loop_
_symmetry_equiv_pos_site_id
_symmetry_equiv_pos_as_xyz
  1  x,y,z
loop_
 _atom_site_label
 _atom_site_occupancy
 _atom_site_fract_x
 _atom_site_fract_y
 _atom_site_fract_z
 _atom_site_thermal_displace_type
 _atom_site_B_iso_or_equiv
 _atom_site_type_symbol
Br1 1.0000000000 0.6850113885 0.8425056943 0.2500000000  Biso 1.0 Br
Br2 1.0000000000 0.1574849455 0.8425103693 0.2500000000  Biso 1.0 Br
Br3 1.0000000000 0.1574849455 0.3149745761 0.2500000000  Biso 1.0 Br
Br4 1.0000000000 0.3149886115 0.1574943057 0.7500000000  Biso 1.0 Br
Br5 1.0000000000 0.8425150545 0.1574896307 0.7500000000  Biso 1.0 Br
Br6 1.0000000000 0.8425150545 0.6850254239 0.7500000000  Biso 1.0 Br
Cs7 1.0000000000 0.3333719179 0.6666859589 0.7500000000  Biso 1.0 Cs
Cs8 1.0000000000 0.6666280821 0.3333140411 0.2500000000  Biso 1.0 Cs
Mg9 1.0000000000 0.0000000000 0.0000000000 0.0000000000  Biso 1.0 Mg
Mg10 1.0000000000 0.0000000000 0.0000000000 0.5000000000  Biso 1.0 Mg
