# AFLOW.org Repositories
# Br4Si1   [CUB,CUB,cP40] (STD_PRIM doi:10
data_Br4Si1
_pd_phase_name Br4Si1
_cell_length_a  12.0764868033
_cell_length_b  12.0764868033
_cell_length_c  12.0764868033
_cell_angle_alpha  90.0000000000
_cell_angle_beta  90.0000000000
_cell_angle_gamma  90.0000000000
_symmetry_space_group_name_H-M  'P1'
_symmetry_Int_Tables_Number  1
loop_
_symmetry_equiv_pos_site_id
_symmetry_equiv_pos_as_xyz
  1  x,y,z
loop_
 _atom_site_label
 _atom_site_occupancy
 _atom_site_fract_x
 _atom_site_fract_y
 _atom_site_fract_z
 _atom_site_thermal_displace_type
 _atom_site_B_iso_or_equiv
 _atom_site_type_symbol
Br1 1.0000000000 0.7619945783 0.7619945783 0.2380054217  Biso 1.0 Br
Br2 1.0000000000 0.7380054217 0.2380054217 0.7380054217  Biso 1.0 Br
Br3 1.0000000000 0.2380054217 0.2619945783 0.2619945783  Biso 1.0 Br
Br4 1.0000000000 0.2619945783 0.7380054217 0.7619945783  Biso 1.0 Br
Br5 1.0000000000 0.2380054217 0.2380054217 0.7619945783  Biso 1.0 Br
Br6 1.0000000000 0.2619945783 0.7619945783 0.2619945783  Biso 1.0 Br
Br7 1.0000000000 0.7619945783 0.7380054217 0.7380054217  Biso 1.0 Br
Br8 1.0000000000 0.7380054217 0.2619945783 0.2380054217  Biso 1.0 Br
Br9 1.0000000000 0.9667322109 0.9801734118 0.2379586062  Biso 1.0 Br
Br10 1.0000000000 0.5332677891 0.0198265882 0.7379586062  Biso 1.0 Br
Br11 1.0000000000 0.0332677891 0.4801734118 0.2620413938  Biso 1.0 Br
Br12 1.0000000000 0.4667322109 0.5198265882 0.7620413938  Biso 1.0 Br
Br13 1.0000000000 0.7620413938 0.9667322109 0.0198265882  Biso 1.0 Br
Br14 1.0000000000 0.2620413938 0.5332677891 0.9801734118  Biso 1.0 Br
Br15 1.0000000000 0.7379586062 0.0332677891 0.5198265882  Biso 1.0 Br
Br16 1.0000000000 0.2379586062 0.4667322109 0.4801734118  Biso 1.0 Br
Br17 1.0000000000 0.9801734118 0.7620413938 0.0332677891  Biso 1.0 Br
Br18 1.0000000000 0.0198265882 0.2620413938 0.4667322109  Biso 1.0 Br
Br19 1.0000000000 0.4801734118 0.7379586062 0.9667322109  Biso 1.0 Br
Br20 1.0000000000 0.5198265882 0.2379586062 0.5332677891  Biso 1.0 Br
Br21 1.0000000000 0.0332677891 0.0198265882 0.7620413938  Biso 1.0 Br
Br22 1.0000000000 0.4667322109 0.9801734118 0.2620413938  Biso 1.0 Br
Br23 1.0000000000 0.9667322109 0.5198265882 0.7379586062  Biso 1.0 Br
Br24 1.0000000000 0.5332677891 0.4801734118 0.2379586062  Biso 1.0 Br
Br25 1.0000000000 0.2379586062 0.0332677891 0.9801734118  Biso 1.0 Br
Br26 1.0000000000 0.7379586062 0.4667322109 0.0198265882  Biso 1.0 Br
Br27 1.0000000000 0.2620413938 0.9667322109 0.4801734118  Biso 1.0 Br
Br28 1.0000000000 0.7620413938 0.5332677891 0.5198265882  Biso 1.0 Br
Br29 1.0000000000 0.0198265882 0.2379586062 0.9667322109  Biso 1.0 Br
Br30 1.0000000000 0.9801734118 0.7379586062 0.5332677891  Biso 1.0 Br
Br31 1.0000000000 0.5198265882 0.2620413938 0.0332677891  Biso 1.0 Br
Br32 1.0000000000 0.4801734118 0.7620413938 0.4667322109  Biso 1.0 Br
Si33 1.0000000000 0.8677222602 0.8677222602 0.1322777398  Biso 1.0 Si
Si34 1.0000000000 0.6322777398 0.1322777398 0.6322777398  Biso 1.0 Si
Si35 1.0000000000 0.1322777398 0.3677222602 0.3677222602  Biso 1.0 Si
Si36 1.0000000000 0.3677222602 0.6322777398 0.8677222602  Biso 1.0 Si
Si37 1.0000000000 0.1322777398 0.1322777398 0.8677222602  Biso 1.0 Si
Si38 1.0000000000 0.3677222602 0.8677222602 0.3677222602  Biso 1.0 Si
Si39 1.0000000000 0.8677222602 0.6322777398 0.6322777398  Biso 1.0 Si
Si40 1.0000000000 0.6322777398 0.3677222602 0.1322777398  Biso 1.0 Si
