# AFLOW.org Repositories
# Br4Ti1   [CUB,CUB,cP40] (STD_PRIM doi:10
data_Br4Ti1
_pd_phase_name Br4Ti1
_cell_length_a  12.1258243522
_cell_length_b  12.1258243522
_cell_length_c  12.1258243522
_cell_angle_alpha  90.0000000000
_cell_angle_beta  90.0000000000
_cell_angle_gamma  90.0000000000
_symmetry_space_group_name_H-M  'P1'
_symmetry_Int_Tables_Number  1
loop_
_symmetry_equiv_pos_site_id
_symmetry_equiv_pos_as_xyz
  1  x,y,z
loop_
 _atom_site_label
 _atom_site_occupancy
 _atom_site_fract_x
 _atom_site_fract_y
 _atom_site_fract_z
 _atom_site_thermal_displace_type
 _atom_site_B_iso_or_equiv
 _atom_site_type_symbol
Br1 1.0000000000 0.7570021168 0.7570021168 0.2429978832  Biso 1.0 Br
Br2 1.0000000000 0.7429978832 0.2429978832 0.7429978832  Biso 1.0 Br
Br3 1.0000000000 0.2429978832 0.2570021168 0.2570021168  Biso 1.0 Br
Br4 1.0000000000 0.2570021168 0.7429978832 0.7570021168  Biso 1.0 Br
Br5 1.0000000000 0.2429978832 0.2429978832 0.7570021168  Biso 1.0 Br
Br6 1.0000000000 0.2570021168 0.7570021168 0.2570021168  Biso 1.0 Br
Br7 1.0000000000 0.7570021168 0.7429978832 0.7429978832  Biso 1.0 Br
Br8 1.0000000000 0.7429978832 0.2570021168 0.2429978832  Biso 1.0 Br
Br9 1.0000000000 0.9791316333 0.9852468407 0.2430362370  Biso 1.0 Br
Br10 1.0000000000 0.5208683667 0.0147531593 0.7430362370  Biso 1.0 Br
Br11 1.0000000000 0.0208683667 0.4852468407 0.2569637630  Biso 1.0 Br
Br12 1.0000000000 0.4791316333 0.5147531593 0.7569637630  Biso 1.0 Br
Br13 1.0000000000 0.7569637630 0.9791316333 0.0147531593  Biso 1.0 Br
Br14 1.0000000000 0.2569637630 0.5208683667 0.9852468407  Biso 1.0 Br
Br15 1.0000000000 0.7430362370 0.0208683667 0.5147531593  Biso 1.0 Br
Br16 1.0000000000 0.2430362370 0.4791316333 0.4852468407  Biso 1.0 Br
Br17 1.0000000000 0.9852468407 0.7569637630 0.0208683667  Biso 1.0 Br
Br18 1.0000000000 0.0147531593 0.2569637630 0.4791316333  Biso 1.0 Br
Br19 1.0000000000 0.4852468407 0.7430362370 0.9791316333  Biso 1.0 Br
Br20 1.0000000000 0.5147531593 0.2430362370 0.5208683667  Biso 1.0 Br
Br21 1.0000000000 0.0208683667 0.0147531593 0.7569637630  Biso 1.0 Br
Br22 1.0000000000 0.4791316333 0.9852468407 0.2569637630  Biso 1.0 Br
Br23 1.0000000000 0.9791316333 0.5147531593 0.7430362370  Biso 1.0 Br
Br24 1.0000000000 0.5208683667 0.4852468407 0.2430362370  Biso 1.0 Br
Br25 1.0000000000 0.2430362370 0.0208683667 0.9852468407  Biso 1.0 Br
Br26 1.0000000000 0.7430362370 0.4791316333 0.0147531593  Biso 1.0 Br
Br27 1.0000000000 0.2569637630 0.9791316333 0.4852468407  Biso 1.0 Br
Br28 1.0000000000 0.7569637630 0.5208683667 0.5147531593  Biso 1.0 Br
Br29 1.0000000000 0.0147531593 0.2430362370 0.9791316333  Biso 1.0 Br
Br30 1.0000000000 0.9852468407 0.7430362370 0.5208683667  Biso 1.0 Br
Br31 1.0000000000 0.5147531593 0.2569637630 0.0208683667  Biso 1.0 Br
Br32 1.0000000000 0.4852468407 0.7569637630 0.4791316333  Biso 1.0 Br
Ti33 1.0000000000 0.8695623691 0.8695623691 0.1304376309  Biso 1.0 Ti
Ti34 1.0000000000 0.6304376309 0.1304376309 0.6304376309  Biso 1.0 Ti
Ti35 1.0000000000 0.1304376309 0.3695623691 0.3695623691  Biso 1.0 Ti
Ti36 1.0000000000 0.3695623691 0.6304376309 0.8695623691  Biso 1.0 Ti
Ti37 1.0000000000 0.1304376309 0.1304376309 0.8695623691  Biso 1.0 Ti
Ti38 1.0000000000 0.3695623691 0.8695623691 0.3695623691  Biso 1.0 Ti
Ti39 1.0000000000 0.8695623691 0.6304376309 0.6304376309  Biso 1.0 Ti
Ti40 1.0000000000 0.6304376309 0.3695623691 0.1304376309  Biso 1.0 Ti
