# AFLOW.org Repositories
# Br5Cs1Sn2   [BCT,BCT2,tI32] (STD_PRIM do
data_Br5Cs1Sn2
_pd_phase_name Br5Cs1Sn2
_cell_length_a  10.1332891249
_cell_length_b  10.1332891249
_cell_length_c  10.1332891249
_cell_angle_alpha  129.5147803467
_cell_angle_beta  129.5147803467
_cell_angle_gamma  74.1836685894
_symmetry_space_group_name_H-M  'P1'
_symmetry_Int_Tables_Number  1
loop_
_symmetry_equiv_pos_site_id
_symmetry_equiv_pos_as_xyz
  1  x,y,z
loop_
 _atom_site_label
 _atom_site_occupancy
 _atom_site_fract_x
 _atom_site_fract_y
 _atom_site_fract_z
 _atom_site_thermal_displace_type
 _atom_site_B_iso_or_equiv
 _atom_site_type_symbol
Br1 1.0000000000 0.0000000000 0.0000000000 0.0000000000  Biso 1.0 Br
Br2 1.0000000000 0.5000000000 0.5000000000 0.0000000000  Biso 1.0 Br
Br3 1.0000000000 0.9661852266 0.7824606850 0.5000000000  Biso 1.0 Br
Br4 1.0000000000 0.2824606850 0.4661852266 0.5000000000  Biso 1.0 Br
Br5 1.0000000000 0.4661852266 0.9661852266 0.1837245416  Biso 1.0 Br
Br6 1.0000000000 0.7824606850 0.2824606850 0.8162754584  Biso 1.0 Br
Br7 1.0000000000 0.2175393150 0.7175393150 0.1837245416  Biso 1.0 Br
Br8 1.0000000000 0.5338147734 0.0338147734 0.8162754584  Biso 1.0 Br
Br9 1.0000000000 0.7175393150 0.5338147734 0.5000000000  Biso 1.0 Br
Br10 1.0000000000 0.0338147734 0.2175393150 0.5000000000  Biso 1.0 Br
Cs11 1.0000000000 0.7500000000 0.7500000000 0.0000000000  Biso 1.0 Cs
Cs12 1.0000000000 0.2500000000 0.2500000000 0.0000000000  Biso 1.0 Cs
Sn13 1.0000000000 0.3174386258 0.1825613742 0.5000000000  Biso 1.0 Sn
Sn14 1.0000000000 0.6825613742 0.8174386258 0.5000000000  Biso 1.0 Sn
Sn15 1.0000000000 0.8174386258 0.3174386258 0.1348772516  Biso 1.0 Sn
Sn16 1.0000000000 0.1825613742 0.6825613742 0.8651227484  Biso 1.0 Sn
