# AFLOW.org Repositories
# Br9Rb3Sb2   [HEX,HEX,hP14] (STD_PRIM doi
data_Br9Rb3Sb2
_pd_phase_name Br9Rb3Sb2
_cell_length_a  8.0167256363
_cell_length_b  8.0167256363
_cell_length_c  9.8193692339
_cell_angle_alpha  90.0000000000
_cell_angle_beta  90.0000000000
_cell_angle_gamma  120.0000000000
_symmetry_space_group_name_H-M  'P1'
_symmetry_Int_Tables_Number  1
loop_
_symmetry_equiv_pos_site_id
_symmetry_equiv_pos_as_xyz
  1  x,y,z
loop_
 _atom_site_label
 _atom_site_occupancy
 _atom_site_fract_x
 _atom_site_fract_y
 _atom_site_fract_z
 _atom_site_thermal_displace_type
 _atom_site_B_iso_or_equiv
 _atom_site_type_symbol
Br1 1.0000000000 0.0000000000 0.5000000000 0.0000000000  Biso 1.0 Br
Br2 1.0000000000 0.5000000000 0.5000000000 0.0000000000  Biso 1.0 Br
Br3 1.0000000000 0.5000000000 0.0000000000 0.0000000000  Biso 1.0 Br
Br4 1.0000000000 0.6578247119 0.8289123560 0.6624426162  Biso 1.0 Br
Br5 1.0000000000 0.1710701269 0.8289415468 0.6624092277  Biso 1.0 Br
Br6 1.0000000000 0.1710701269 0.3421285801 0.6624092277  Biso 1.0 Br
Br7 1.0000000000 0.3421752881 0.1710876440 0.3375573838  Biso 1.0 Br
Br8 1.0000000000 0.8289298731 0.6578714199 0.3375907723  Biso 1.0 Br
Br9 1.0000000000 0.8289298731 0.1710584532 0.3375907723  Biso 1.0 Br
Rb10 1.0000000000 0.0000000000 0.0000000000 0.0000000000  Biso 1.0 Rb
Rb11 1.0000000000 0.6666183778 0.3333091889 0.6688855146  Biso 1.0 Rb
Rb12 1.0000000000 0.3333816222 0.6666908111 0.3311144854  Biso 1.0 Rb
Sb13 1.0000000000 0.6666094854 0.3333047427 0.1873600368  Biso 1.0 Sb
Sb14 1.0000000000 0.3333905146 0.6666952573 0.8126399632  Biso 1.0 Sb
