# AFLOW.org Repositories
# C1   [HEX,HEX,hP16] (STD_PRIM doi:10.101
data_C1
_pd_phase_name C1
_cell_length_a  2.5224807794
_cell_length_b  2.5224807794
_cell_length_c  16.5576955128
_cell_angle_alpha  90.0000000000
_cell_angle_beta  90.0000000000
_cell_angle_gamma  120.0000000000
_symmetry_space_group_name_H-M  'P1'
_symmetry_Int_Tables_Number  1
loop_
_symmetry_equiv_pos_site_id
_symmetry_equiv_pos_as_xyz
  1  x,y,z
loop_
 _atom_site_label
 _atom_site_occupancy
 _atom_site_fract_x
 _atom_site_fract_y
 _atom_site_fract_z
 _atom_site_thermal_displace_type
 _atom_site_B_iso_or_equiv
 _atom_site_type_symbol
C1 1.0000000000 0.0000000000 0.0000000000 0.0467075115  Biso 1.0 C
C2 1.0000000000 0.0000000000 0.0000000000 0.5467075115  Biso 1.0 C
C3 1.0000000000 0.0000000000 0.0000000000 0.9532924885  Biso 1.0 C
C4 1.0000000000 0.0000000000 0.0000000000 0.4532924885  Biso 1.0 C
C5 1.0000000000 0.6666718464 0.3333436929 0.0778812491  Biso 1.0 C
C6 1.0000000000 0.3333281536 0.6666563071 0.5778812491  Biso 1.0 C
C7 1.0000000000 0.3333281536 0.6666563071 0.9221187509  Biso 1.0 C
C8 1.0000000000 0.6666718464 0.3333436929 0.4221187509  Biso 1.0 C
C9 1.0000000000 0.6666705267 0.3333410534 0.1712373864  Biso 1.0 C
C10 1.0000000000 0.3333294733 0.6666589466 0.6712373864  Biso 1.0 C
C11 1.0000000000 0.3333294733 0.6666589466 0.8287626136  Biso 1.0 C
C12 1.0000000000 0.6666705267 0.3333410534 0.3287626136  Biso 1.0 C
C13 1.0000000000 0.6666638909 0.3333277818 0.7974042917  Biso 1.0 C
C14 1.0000000000 0.3333361091 0.6666722182 0.2974042917  Biso 1.0 C
C15 1.0000000000 0.3333361091 0.6666722182 0.2025957083  Biso 1.0 C
C16 1.0000000000 0.6666638909 0.3333277818 0.7025957083  Biso 1.0 C
