# AFLOW.org Repositories
# C1Fe6W6   [FCC,FCC,cF104] (STD_PRIM doi:
data_C1Fe6W6
_pd_phase_name C1Fe6W6
_cell_length_a  7.9808112599
_cell_length_b  7.9808112599
_cell_length_c  7.9808112599
_cell_angle_alpha  60.0000000000
_cell_angle_beta  60.0000000000
_cell_angle_gamma  60.0000000000
_symmetry_space_group_name_H-M  'P1'
_symmetry_Int_Tables_Number  1
loop_
_symmetry_equiv_pos_site_id
_symmetry_equiv_pos_as_xyz
  1  x,y,z
loop_
 _atom_site_label
 _atom_site_occupancy
 _atom_site_fract_x
 _atom_site_fract_y
 _atom_site_fract_z
 _atom_site_thermal_displace_type
 _atom_site_B_iso_or_equiv
 _atom_site_type_symbol
C1 1.0000000000 0.6250000000 0.1250000000 0.1250000000  Biso 1.0 C
C2 1.0000000000 0.3750000000 0.8750000000 0.8750000000  Biso 1.0 C
Fe3 1.0000000000 0.8777563950 0.7074145350 0.7074145350  Biso 1.0 Fe
Fe4 1.0000000000 0.2074145350 0.7074145350 0.7074145350  Biso 1.0 Fe
Fe5 1.0000000000 0.2074145350 0.3777563950 0.7074145350  Biso 1.0 Fe
Fe6 1.0000000000 0.2074145350 0.7074145350 0.3777563950  Biso 1.0 Fe
Fe7 1.0000000000 0.7925854650 0.2925854650 0.2925854650  Biso 1.0 Fe
Fe8 1.0000000000 0.1222436050 0.2925854650 0.2925854650  Biso 1.0 Fe
Fe9 1.0000000000 0.7925854650 0.6222436050 0.2925854650  Biso 1.0 Fe
Fe10 1.0000000000 0.7925854650 0.2925854650 0.6222436050  Biso 1.0 Fe
Fe11 1.0000000000 0.5000000000 0.5000000000 0.5000000000  Biso 1.0 Fe
Fe12 1.0000000000 0.0000000000 0.5000000000 0.5000000000  Biso 1.0 Fe
Fe13 1.0000000000 0.0000000000 0.0000000000 0.5000000000  Biso 1.0 Fe
Fe14 1.0000000000 0.0000000000 0.5000000000 0.0000000000  Biso 1.0 Fe
W15 1.0000000000 0.4324585647 0.3175414353 0.9324585647  Biso 1.0 W
W16 1.0000000000 0.8175414353 0.9324585647 0.3175414353  Biso 1.0 W
W17 1.0000000000 0.4324585647 0.9324585647 0.3175414353  Biso 1.0 W
W18 1.0000000000 0.8175414353 0.3175414353 0.9324585647  Biso 1.0 W
W19 1.0000000000 0.4324585647 0.3175414353 0.3175414353  Biso 1.0 W
W20 1.0000000000 0.8175414353 0.9324585647 0.9324585647  Biso 1.0 W
W21 1.0000000000 0.1824585647 0.6824585647 0.0675414353  Biso 1.0 W
W22 1.0000000000 0.5675414353 0.0675414353 0.6824585647  Biso 1.0 W
W23 1.0000000000 0.1824585647 0.0675414353 0.6824585647  Biso 1.0 W
W24 1.0000000000 0.5675414353 0.6824585647 0.0675414353  Biso 1.0 W
W25 1.0000000000 0.5675414353 0.6824585647 0.6824585647  Biso 1.0 W
W26 1.0000000000 0.1824585647 0.0675414353 0.0675414353  Biso 1.0 W
