# AFLOW.org Repositories
# C1Ge3Mo5   [HEX,HEX,hP18] (STD_PRIM doi:
data_C1Ge3Mo5
_pd_phase_name C1Ge3Mo5
_cell_length_a  7.4894066118
_cell_length_b  7.4894066118
_cell_length_c  5.3465822741
_cell_angle_alpha  90.0000000000
_cell_angle_beta  90.0000000000
_cell_angle_gamma  120.0000000000
_symmetry_space_group_name_H-M  'P1'
_symmetry_Int_Tables_Number  1
loop_
_symmetry_equiv_pos_site_id
_symmetry_equiv_pos_as_xyz
  1  x,y,z
loop_
 _atom_site_label
 _atom_site_occupancy
 _atom_site_fract_x
 _atom_site_fract_y
 _atom_site_fract_z
 _atom_site_thermal_displace_type
 _atom_site_B_iso_or_equiv
 _atom_site_type_symbol
C1 1.0000000000 0.0000000000 0.0000000000 0.0000000000  Biso 1.0 C
C2 1.0000000000 0.0000000000 0.0000000000 0.5000000000  Biso 1.0 C
Ge3 1.0000000000 0.0000000000 0.4028333958 0.2500000000  Biso 1.0 Ge
Ge4 1.0000000000 0.5971666042 0.5971666042 0.2500000000  Biso 1.0 Ge
Ge5 1.0000000000 0.4028430538 0.0000000000 0.2500000000  Biso 1.0 Ge
Ge6 1.0000000000 0.0000000000 0.5971666042 0.7500000000  Biso 1.0 Ge
Ge7 1.0000000000 0.4028333958 0.4028333958 0.7500000000  Biso 1.0 Ge
Ge8 1.0000000000 0.5971569462 0.0000000000 0.7500000000  Biso 1.0 Ge
Mo9 1.0000000000 0.0000000000 0.7732563018 0.2500000000  Biso 1.0 Mo
Mo10 1.0000000000 0.2267436982 0.2267436982 0.2500000000  Biso 1.0 Mo
Mo11 1.0000000000 0.7732549475 0.0000000000 0.2500000000  Biso 1.0 Mo
Mo12 1.0000000000 0.0000000000 0.2267436982 0.7500000000  Biso 1.0 Mo
Mo13 1.0000000000 0.7732563018 0.7732563018 0.7500000000  Biso 1.0 Mo
Mo14 1.0000000000 0.2267450525 0.0000000000 0.7500000000  Biso 1.0 Mo
Mo15 1.0000000000 0.6666703190 0.3333406380 0.0000000000  Biso 1.0 Mo
Mo16 1.0000000000 0.3333296810 0.6666593620 0.5000000000  Biso 1.0 Mo
Mo17 1.0000000000 0.3333296810 0.6666593620 0.0000000000  Biso 1.0 Mo
Mo18 1.0000000000 0.6666703190 0.3333406380 0.5000000000  Biso 1.0 Mo
