# AFLOW.org Repositories
# C1Hf2S1   [HEX,HEX,hP8] (STD_PRIM doi:10
data_C1Hf2S1
_pd_phase_name C1Hf2S1
_cell_length_a  3.3825402850
_cell_length_b  3.3825402850
_cell_length_c  12.0676245571
_cell_angle_alpha  90.0000000000
_cell_angle_beta  90.0000000000
_cell_angle_gamma  120.0000000000
_symmetry_space_group_name_H-M  'P1'
_symmetry_Int_Tables_Number  1
loop_
_symmetry_equiv_pos_site_id
_symmetry_equiv_pos_as_xyz
  1  x,y,z
loop_
 _atom_site_label
 _atom_site_occupancy
 _atom_site_fract_x
 _atom_site_fract_y
 _atom_site_fract_z
 _atom_site_thermal_displace_type
 _atom_site_B_iso_or_equiv
 _atom_site_type_symbol
C1 1.0000000000 0.0000000000 0.0000000000 0.0000000000  Biso 1.0 C
C2 1.0000000000 0.0000000000 0.0000000000 0.5000000000  Biso 1.0 C
Hf3 1.0000000000 0.3333260862 0.6666739138 0.0998357408  Biso 1.0 Hf
Hf4 1.0000000000 0.6666739138 0.3333260862 0.5998357408  Biso 1.0 Hf
Hf5 1.0000000000 0.6666739138 0.3333260862 0.9001642592  Biso 1.0 Hf
Hf6 1.0000000000 0.3333260862 0.6666739138 0.4001642592  Biso 1.0 Hf
S7 1.0000000000 0.3333226991 0.6666773009 0.7500000000  Biso 1.0 S
S8 1.0000000000 0.6666773009 0.3333226991 0.2500000000  Biso 1.0 S
