# AFLOW.org Repositories
# C1Nb2   [ORC,ORC,oP12] (STD_PRIM doi:10.
data_C1Nb2
_pd_phase_name C1Nb2
_cell_length_a  3.1117470086
_cell_length_b  5.0084581575
_cell_length_c  11.0170428340
_cell_angle_alpha  90.0000000000
_cell_angle_beta  90.0000000000
_cell_angle_gamma  90.0000000000
_symmetry_space_group_name_H-M  'P1'
_symmetry_Int_Tables_Number  1
loop_
_symmetry_equiv_pos_site_id
_symmetry_equiv_pos_as_xyz
  1  x,y,z
loop_
 _atom_site_label
 _atom_site_occupancy
 _atom_site_fract_x
 _atom_site_fract_y
 _atom_site_fract_z
 _atom_site_thermal_displace_type
 _atom_site_B_iso_or_equiv
 _atom_site_type_symbol
C1 1.0000000000 0.0000000000 0.0083189479 0.3755184582  Biso 1.0 C
C2 1.0000000000 0.5000000000 0.9916810521 0.6244815418  Biso 1.0 C
C3 1.0000000000 0.0000000000 0.4916810521 0.8755184582  Biso 1.0 C
C4 1.0000000000 0.5000000000 0.5083189479 0.1244815418  Biso 1.0 C
Nb5 1.0000000000 0.0000000000 0.2539077167 0.0453388808  Biso 1.0 Nb
Nb6 1.0000000000 0.5000000000 0.7460922833 0.9546611192  Biso 1.0 Nb
Nb7 1.0000000000 0.0000000000 0.2460922833 0.5453388808  Biso 1.0 Nb
Nb8 1.0000000000 0.5000000000 0.7539077167 0.4546611192  Biso 1.0 Nb
Nb9 1.0000000000 0.0000000000 0.7631554108 0.2039060974  Biso 1.0 Nb
Nb10 1.0000000000 0.5000000000 0.2368445892 0.7960939026  Biso 1.0 Nb
Nb11 1.0000000000 0.0000000000 0.7368445892 0.7039060974  Biso 1.0 Nb
Nb12 1.0000000000 0.5000000000 0.2631554108 0.2960939026  Biso 1.0 Nb
