# AFLOW.org Repositories
# C1Nb4Zn2   [FCC,FCC,cF112] (STD_PRIM doi
data_C1Nb4Zn2
_pd_phase_name C1Nb4Zn2
_cell_length_a  8.4455387955
_cell_length_b  8.4455387955
_cell_length_c  8.4455387955
_cell_angle_alpha  60.0000000000
_cell_angle_beta  60.0000000000
_cell_angle_gamma  60.0000000000
_symmetry_space_group_name_H-M  'P1'
_symmetry_Int_Tables_Number  1
loop_
_symmetry_equiv_pos_site_id
_symmetry_equiv_pos_as_xyz
  1  x,y,z
loop_
 _atom_site_label
 _atom_site_occupancy
 _atom_site_fract_x
 _atom_site_fract_y
 _atom_site_fract_z
 _atom_site_thermal_displace_type
 _atom_site_B_iso_or_equiv
 _atom_site_type_symbol
C1 1.0000000000 0.6250000000 0.1250000000 0.6250000000  Biso 1.0 C
C2 1.0000000000 0.6250000000 0.6250000000 0.6250000000  Biso 1.0 C
C3 1.0000000000 0.6250000000 0.6250000000 0.1250000000  Biso 1.0 C
C4 1.0000000000 0.1250000000 0.6250000000 0.6250000000  Biso 1.0 C
Nb5 1.0000000000 0.6893069569 0.6893069569 0.3106930431  Biso 1.0 Nb
Nb6 1.0000000000 0.3106930431 0.3106930431 0.6893069569  Biso 1.0 Nb
Nb7 1.0000000000 0.3106930431 0.6893069569 0.6893069569  Biso 1.0 Nb
Nb8 1.0000000000 0.6893069569 0.3106930431 0.3106930431  Biso 1.0 Nb
Nb9 1.0000000000 0.3106930431 0.6893069569 0.3106930431  Biso 1.0 Nb
Nb10 1.0000000000 0.6893069569 0.3106930431 0.6893069569  Biso 1.0 Nb
Nb11 1.0000000000 0.5606930431 0.9393069569 0.9393069569  Biso 1.0 Nb
Nb12 1.0000000000 0.9393069569 0.5606930431 0.5606930431  Biso 1.0 Nb
Nb13 1.0000000000 0.9393069569 0.9393069569 0.5606930431  Biso 1.0 Nb
Nb14 1.0000000000 0.5606930431 0.5606930431 0.9393069569  Biso 1.0 Nb
Nb15 1.0000000000 0.9393069569 0.5606930431 0.9393069569  Biso 1.0 Nb
Nb16 1.0000000000 0.5606930431 0.9393069569 0.5606930431  Biso 1.0 Nb
Nb17 1.0000000000 0.1250000000 0.6250000000 0.1250000000  Biso 1.0 Nb
Nb18 1.0000000000 0.1250000000 0.1250000000 0.1250000000  Biso 1.0 Nb
Nb19 1.0000000000 0.1250000000 0.1250000000 0.6250000000  Biso 1.0 Nb
Nb20 1.0000000000 0.6250000000 0.1250000000 0.1250000000  Biso 1.0 Nb
Zn21 1.0000000000 0.9107114846 0.2678655462 0.9107114846  Biso 1.0 Zn
Zn22 1.0000000000 0.9107114846 0.9107114846 0.9107114846  Biso 1.0 Zn
Zn23 1.0000000000 0.9107114846 0.9107114846 0.2678655462  Biso 1.0 Zn
Zn24 1.0000000000 0.2678655462 0.9107114846 0.9107114846  Biso 1.0 Zn
Zn25 1.0000000000 0.3392885154 0.3392885154 0.3392885154  Biso 1.0 Zn
Zn26 1.0000000000 0.3392885154 0.9821344538 0.3392885154  Biso 1.0 Zn
Zn27 1.0000000000 0.3392885154 0.3392885154 0.9821344538  Biso 1.0 Zn
Zn28 1.0000000000 0.9821344538 0.3392885154 0.3392885154  Biso 1.0 Zn
