# AFLOW.org Repositories
# C2Co1Ho1   [ORCC,ORCC,oS8] (STD_PRIM doi
data_C2Co1Ho1
_pd_phase_name C2Co1Ho1
_cell_length_a  3.7314863503
_cell_length_b  3.7314863503
_cell_length_c  3.5112219538
_cell_angle_alpha  90.0000000000
_cell_angle_beta  90.0000000000
_cell_angle_gamma  106.5740085601
_symmetry_space_group_name_H-M  'P1'
_symmetry_Int_Tables_Number  1
loop_
_symmetry_equiv_pos_site_id
_symmetry_equiv_pos_as_xyz
  1  x,y,z
loop_
 _atom_site_label
 _atom_site_occupancy
 _atom_site_fract_x
 _atom_site_fract_y
 _atom_site_fract_z
 _atom_site_thermal_displace_type
 _atom_site_B_iso_or_equiv
 _atom_site_type_symbol
C1 1.0000000000 0.5390745470 0.1525962109 0.5000000000  Biso 1.0 C
C2 1.0000000000 0.8474037891 0.4609254530 0.5000000000  Biso 1.0 C
Co3 1.0000000000 0.3853264928 0.6146735072 0.5000000000  Biso 1.0 Co
Ho4 1.0000000000 0.0031951711 0.9968048289 0.0000000000  Biso 1.0 Ho
