# AFLOW.org Repositories
# C2Mg1   [TET,TET,tP6] (STD_PRIM doi:10.1
data_C2Mg1
_pd_phase_name C2Mg1
_cell_length_a  3.9457842188
_cell_length_b  3.9457842188
_cell_length_c  4.9976261230
_cell_angle_alpha  90.0000000000
_cell_angle_beta  90.0000000000
_cell_angle_gamma  90.0000000000
_symmetry_space_group_name_H-M  'P1'
_symmetry_Int_Tables_Number  1
loop_
_symmetry_equiv_pos_site_id
_symmetry_equiv_pos_as_xyz
  1  x,y,z
loop_
 _atom_site_label
 _atom_site_occupancy
 _atom_site_fract_x
 _atom_site_fract_y
 _atom_site_fract_z
 _atom_site_thermal_displace_type
 _atom_site_B_iso_or_equiv
 _atom_site_type_symbol
C1 1.0000000000 0.1125965763 0.1125965763 0.0000000000  Biso 1.0 C
C2 1.0000000000 0.8874034237 0.8874034237 0.0000000000  Biso 1.0 C
C3 1.0000000000 0.3874034237 0.6125965763 0.5000000000  Biso 1.0 C
C4 1.0000000000 0.6125965763 0.3874034237 0.5000000000  Biso 1.0 C
Mg5 1.0000000000 0.0000000000 0.0000000000 0.5000000000  Biso 1.0 Mg
Mg6 1.0000000000 0.5000000000 0.5000000000 0.0000000000  Biso 1.0 Mg
