# AFLOW.org Repositories
# C2Os1   [HEX,HEX,hP6] (STD_PRIM doi:10.1
data_C2Os1
_pd_phase_name C2Os1
_cell_length_a  2.8740774926
_cell_length_b  2.8740774926
_cell_length_c  7.9834737354
_cell_angle_alpha  90.0000000000
_cell_angle_beta  90.0000000000
_cell_angle_gamma  120.0000000000
_symmetry_space_group_name_H-M  'P1'
_symmetry_Int_Tables_Number  1
loop_
_symmetry_equiv_pos_site_id
_symmetry_equiv_pos_as_xyz
  1  x,y,z
loop_
 _atom_site_label
 _atom_site_occupancy
 _atom_site_fract_x
 _atom_site_fract_y
 _atom_site_fract_z
 _atom_site_thermal_displace_type
 _atom_site_B_iso_or_equiv
 _atom_site_type_symbol
C1 1.0000000000 0.0000000000 0.0000000000 0.0895260280  Biso 1.0 C
C2 1.0000000000 0.0000000000 0.0000000000 0.5895260280  Biso 1.0 C
C3 1.0000000000 0.0000000000 0.0000000000 0.9104739720  Biso 1.0 C
C4 1.0000000000 0.0000000000 0.0000000000 0.4104739720  Biso 1.0 C
Os5 1.0000000000 0.3333170559 0.6666341118 0.2500000000  Biso 1.0 Os
Os6 1.0000000000 0.6666829441 0.3333658882 0.7500000000  Biso 1.0 Os
