# AFLOW.org Repositories
# C2Re1Y2   [ORC,ORC,oP20] (STD_PRIM doi:1
data_C2Re1Y2
_pd_phase_name C2Re1Y2
_cell_length_a  5.1299527107
_cell_length_b  6.6121909784
_cell_length_c  9.8951134980
_cell_angle_alpha  90.0000000000
_cell_angle_beta  90.0000000000
_cell_angle_gamma  90.0000000000
_symmetry_space_group_name_H-M  'P1'
_symmetry_Int_Tables_Number  1
loop_
_symmetry_equiv_pos_site_id
_symmetry_equiv_pos_as_xyz
  1  x,y,z
loop_
 _atom_site_label
 _atom_site_occupancy
 _atom_site_fract_x
 _atom_site_fract_y
 _atom_site_fract_z
 _atom_site_thermal_displace_type
 _atom_site_B_iso_or_equiv
 _atom_site_type_symbol
C1 1.0000000000 0.2500000000 0.0442738202 0.7403192055  Biso 1.0 C
C2 1.0000000000 0.7500000000 0.4557261798 0.2403192055  Biso 1.0 C
C3 1.0000000000 0.7500000000 0.9557261798 0.2596807945  Biso 1.0 C
C4 1.0000000000 0.2500000000 0.5442738202 0.7596807945  Biso 1.0 C
C5 1.0000000000 0.2500000000 0.6781447574 0.4518714641  Biso 1.0 C
C6 1.0000000000 0.7500000000 0.8218552426 0.9518714641  Biso 1.0 C
C7 1.0000000000 0.7500000000 0.3218552426 0.5481285359  Biso 1.0 C
C8 1.0000000000 0.2500000000 0.1781447574 0.0481285359  Biso 1.0 C
Re9 1.0000000000 0.2500000000 0.2768018360 0.8649792285  Biso 1.0 Re
Re10 1.0000000000 0.7500000000 0.2231981640 0.3649792285  Biso 1.0 Re
Re11 1.0000000000 0.7500000000 0.7231981640 0.1350207715  Biso 1.0 Re
Re12 1.0000000000 0.2500000000 0.7768018360 0.6350207715  Biso 1.0 Re
Y13 1.0000000000 0.2500000000 0.8199158889 0.9440955061  Biso 1.0 Y
Y14 1.0000000000 0.7500000000 0.6800841111 0.4440955061  Biso 1.0 Y
Y15 1.0000000000 0.7500000000 0.1800841111 0.0559044939  Biso 1.0 Y
Y16 1.0000000000 0.2500000000 0.3199158889 0.5559044939  Biso 1.0 Y
Y17 1.0000000000 0.2500000000 0.4676981112 0.2155909405  Biso 1.0 Y
Y18 1.0000000000 0.7500000000 0.0323018888 0.7155909405  Biso 1.0 Y
Y19 1.0000000000 0.7500000000 0.5323018888 0.7844090595  Biso 1.0 Y
Y20 1.0000000000 0.2500000000 0.9676981112 0.2844090595  Biso 1.0 Y
