# AFLOW.org Repositories
# C2Re1   [HEX,HEX,hP6] (STD_PRIM doi:10.1
data_C2Re1
_pd_phase_name C2Re1
_cell_length_a  2.8843070359
_cell_length_b  2.8843070359
_cell_length_c  8.1233904278
_cell_angle_alpha  90.0000000000
_cell_angle_beta  90.0000000000
_cell_angle_gamma  120.0000000000
_symmetry_space_group_name_H-M  'P1'
_symmetry_Int_Tables_Number  1
loop_
_symmetry_equiv_pos_site_id
_symmetry_equiv_pos_as_xyz
  1  x,y,z
loop_
 _atom_site_label
 _atom_site_occupancy
 _atom_site_fract_x
 _atom_site_fract_y
 _atom_site_fract_z
 _atom_site_thermal_displace_type
 _atom_site_B_iso_or_equiv
 _atom_site_type_symbol
C1 1.0000000000 0.0000000000 0.0000000000 0.0849718494  Biso 1.0 C
C2 1.0000000000 0.0000000000 0.0000000000 0.5849718494  Biso 1.0 C
C3 1.0000000000 0.0000000000 0.0000000000 0.9150281506  Biso 1.0 C
C4 1.0000000000 0.0000000000 0.0000000000 0.4150281506  Biso 1.0 C
Re5 1.0000000000 0.3333183132 0.6666366264 0.2500000000  Biso 1.0 Re
Re6 1.0000000000 0.6666816868 0.3333633736 0.7500000000  Biso 1.0 Re
