# AFLOW.org Repositories
# C2Si1   [CUB,CUB,cP12] (STD_PRIM doi:10.
data_C2Si1
_pd_phase_name C2Si1
_cell_length_a  4.7882157691
_cell_length_b  4.7882157691
_cell_length_c  4.7882157691
_cell_angle_alpha  90.0000000000
_cell_angle_beta  90.0000000000
_cell_angle_gamma  90.0000000000
_symmetry_space_group_name_H-M  'P1'
_symmetry_Int_Tables_Number  1
loop_
_symmetry_equiv_pos_site_id
_symmetry_equiv_pos_as_xyz
  1  x,y,z
loop_
 _atom_site_label
 _atom_site_occupancy
 _atom_site_fract_x
 _atom_site_fract_y
 _atom_site_fract_z
 _atom_site_thermal_displace_type
 _atom_site_B_iso_or_equiv
 _atom_site_type_symbol
C1 1.0000000000 0.5820247766 0.5820247766 0.4179752234  Biso 1.0 C
C2 1.0000000000 0.9179752234 0.4179752234 0.9179752234  Biso 1.0 C
C3 1.0000000000 0.4179752234 0.0820247766 0.0820247766  Biso 1.0 C
C4 1.0000000000 0.0820247766 0.9179752234 0.5820247766  Biso 1.0 C
C5 1.0000000000 0.4179752234 0.4179752234 0.5820247766  Biso 1.0 C
C6 1.0000000000 0.0820247766 0.5820247766 0.0820247766  Biso 1.0 C
C7 1.0000000000 0.5820247766 0.9179752234 0.9179752234  Biso 1.0 C
C8 1.0000000000 0.9179752234 0.0820247766 0.4179752234  Biso 1.0 C
Si9 1.0000000000 0.0000000000 0.0000000000 0.0000000000  Biso 1.0 Si
Si10 1.0000000000 0.5000000000 0.0000000000 0.5000000000  Biso 1.0 Si
Si11 1.0000000000 0.0000000000 0.5000000000 0.5000000000  Biso 1.0 Si
Si12 1.0000000000 0.5000000000 0.5000000000 0.0000000000  Biso 1.0 Si
