# AFLOW.org Repositories
# C3Nb8Zn4   [FCC,FCC,cF120] (STD_PRIM doi
data_C3Nb8Zn4
_pd_phase_name C3Nb8Zn4
_cell_length_a  8.4912613334
_cell_length_b  8.4912613334
_cell_length_c  8.4912613334
_cell_angle_alpha  60.0000000000
_cell_angle_beta  60.0000000000
_cell_angle_gamma  60.0000000000
_symmetry_space_group_name_H-M  'P1'
_symmetry_Int_Tables_Number  1
loop_
_symmetry_equiv_pos_site_id
_symmetry_equiv_pos_as_xyz
  1  x,y,z
loop_
 _atom_site_label
 _atom_site_occupancy
 _atom_site_fract_x
 _atom_site_fract_y
 _atom_site_fract_z
 _atom_site_thermal_displace_type
 _atom_site_B_iso_or_equiv
 _atom_site_type_symbol
C1 1.0000000000 0.6250000000 0.6250000000 0.6250000000  Biso 1.0 C
C2 1.0000000000 0.6250000000 0.6250000000 0.1250000000  Biso 1.0 C
C3 1.0000000000 0.6250000000 0.1250000000 0.6250000000  Biso 1.0 C
C4 1.0000000000 0.1250000000 0.6250000000 0.6250000000  Biso 1.0 C
C5 1.0000000000 0.5000000000 0.5000000000 0.5000000000  Biso 1.0 C
C6 1.0000000000 0.7500000000 0.7500000000 0.7500000000  Biso 1.0 C
Nb7 1.0000000000 0.6893124836 0.3106875164 0.3106875164  Biso 1.0 Nb
Nb8 1.0000000000 0.3106875164 0.6893124836 0.6893124836  Biso 1.0 Nb
Nb9 1.0000000000 0.3106875164 0.6893124836 0.3106875164  Biso 1.0 Nb
Nb10 1.0000000000 0.6893124836 0.3106875164 0.6893124836  Biso 1.0 Nb
Nb11 1.0000000000 0.3106875164 0.3106875164 0.6893124836  Biso 1.0 Nb
Nb12 1.0000000000 0.6893124836 0.6893124836 0.3106875164  Biso 1.0 Nb
Nb13 1.0000000000 0.5606875164 0.9393124836 0.5606875164  Biso 1.0 Nb
Nb14 1.0000000000 0.9393124836 0.5606875164 0.9393124836  Biso 1.0 Nb
Nb15 1.0000000000 0.9393124836 0.5606875164 0.5606875164  Biso 1.0 Nb
Nb16 1.0000000000 0.5606875164 0.9393124836 0.9393124836  Biso 1.0 Nb
Nb17 1.0000000000 0.9393124836 0.9393124836 0.5606875164  Biso 1.0 Nb
Nb18 1.0000000000 0.5606875164 0.5606875164 0.9393124836  Biso 1.0 Nb
Nb19 1.0000000000 0.1250000000 0.1250000000 0.1250000000  Biso 1.0 Nb
Nb20 1.0000000000 0.1250000000 0.1250000000 0.6250000000  Biso 1.0 Nb
Nb21 1.0000000000 0.1250000000 0.6250000000 0.1250000000  Biso 1.0 Nb
Nb22 1.0000000000 0.6250000000 0.1250000000 0.1250000000  Biso 1.0 Nb
Zn23 1.0000000000 0.9124395491 0.9124395491 0.9124395491  Biso 1.0 Zn
Zn24 1.0000000000 0.9124395491 0.9124395491 0.2626813526  Biso 1.0 Zn
Zn25 1.0000000000 0.9124395491 0.2626813526 0.9124395491  Biso 1.0 Zn
Zn26 1.0000000000 0.2626813526 0.9124395491 0.9124395491  Biso 1.0 Zn
Zn27 1.0000000000 0.3375604509 0.3375604509 0.9873186474  Biso 1.0 Zn
Zn28 1.0000000000 0.3375604509 0.3375604509 0.3375604509  Biso 1.0 Zn
Zn29 1.0000000000 0.3375604509 0.9873186474 0.3375604509  Biso 1.0 Zn
Zn30 1.0000000000 0.9873186474 0.3375604509 0.3375604509  Biso 1.0 Zn
