# AFLOW.org Repositories
# C60Sr6   [BCC,BCC,cI132] (STD_PRIM doi:1
data_C60Sr6
_pd_phase_name C60Sr6
_cell_length_a  9.5719354886
_cell_length_b  9.5719354886
_cell_length_c  9.5719354886
_cell_angle_alpha  109.4712206345
_cell_angle_beta  109.4712206345
_cell_angle_gamma  109.4712206345
_symmetry_space_group_name_H-M  'P1'
_symmetry_Int_Tables_Number  1
loop_
_symmetry_equiv_pos_site_id
_symmetry_equiv_pos_as_xyz
  1  x,y,z
loop_
 _atom_site_label
 _atom_site_occupancy
 _atom_site_fract_x
 _atom_site_fract_y
 _atom_site_fract_z
 _atom_site_thermal_displace_type
 _atom_site_B_iso_or_equiv
 _atom_site_type_symbol
C1 1.0000000000 0.0657215748 0.6811838055 0.7469053802  Biso 1.0 C
C2 1.0000000000 0.9342784252 0.6811838055 0.6154622307  Biso 1.0 C
C3 1.0000000000 0.9342784252 0.3188161945 0.2530946198  Biso 1.0 C
C4 1.0000000000 0.0657215748 0.3188161945 0.3845377693  Biso 1.0 C
C5 1.0000000000 0.2530946198 0.9342784252 0.3188161945  Biso 1.0 C
C6 1.0000000000 0.3845377693 0.0657215748 0.3188161945  Biso 1.0 C
C7 1.0000000000 0.7469053802 0.0657215748 0.6811838055  Biso 1.0 C
C8 1.0000000000 0.6154622307 0.9342784252 0.6811838055  Biso 1.0 C
C9 1.0000000000 0.6811838055 0.6154622307 0.9342784252  Biso 1.0 C
C10 1.0000000000 0.6811838055 0.7469053802 0.0657215748  Biso 1.0 C
C11 1.0000000000 0.3188161945 0.3845377693 0.0657215748  Biso 1.0 C
C12 1.0000000000 0.3188161945 0.2530946198 0.9342784252  Biso 1.0 C
C13 1.0000000000 0.0247815003 0.6160418346 0.8528992306  Biso 1.0 C
C14 1.0000000000 0.9752184997 0.8281177303 0.5912603344  Biso 1.0 C
C15 1.0000000000 0.7631426040 0.1718822697 0.1471007694  Biso 1.0 C
C16 1.0000000000 0.2368573960 0.3839581654 0.4087396656  Biso 1.0 C
C17 1.0000000000 0.1471007694 0.7631426040 0.1718822697  Biso 1.0 C
C18 1.0000000000 0.4087396656 0.2368573960 0.3839581654  Biso 1.0 C
C19 1.0000000000 0.8528992306 0.0247815003 0.6160418346  Biso 1.0 C
C20 1.0000000000 0.5912603344 0.9752184997 0.8281177303  Biso 1.0 C
C21 1.0000000000 0.8281177303 0.5912603344 0.9752184997  Biso 1.0 C
C22 1.0000000000 0.6160418346 0.8528992306 0.0247815003  Biso 1.0 C
C23 1.0000000000 0.3839581654 0.4087396656 0.2368573960  Biso 1.0 C
C24 1.0000000000 0.1718822697 0.1471007694 0.7631426040  Biso 1.0 C
C25 1.0000000000 0.9752184997 0.3839581654 0.1471007694  Biso 1.0 C
C26 1.0000000000 0.0247815003 0.1718822697 0.4087396656  Biso 1.0 C
C27 1.0000000000 0.2368573960 0.8281177303 0.8528992306  Biso 1.0 C
C28 1.0000000000 0.7631426040 0.6160418346 0.5912603344  Biso 1.0 C
C29 1.0000000000 0.8528992306 0.2368573960 0.8281177303  Biso 1.0 C
C30 1.0000000000 0.5912603344 0.7631426040 0.6160418346  Biso 1.0 C
C31 1.0000000000 0.1471007694 0.9752184997 0.3839581654  Biso 1.0 C
C32 1.0000000000 0.4087396656 0.0247815003 0.1718822697  Biso 1.0 C
C33 1.0000000000 0.1718822697 0.4087396656 0.0247815003  Biso 1.0 C
C34 1.0000000000 0.3839581654 0.1471007694 0.9752184997  Biso 1.0 C
C35 1.0000000000 0.6160418346 0.5912603344 0.7631426040  Biso 1.0 C
C36 1.0000000000 0.8281177303 0.8528992306 0.2368573960  Biso 1.0 C
C37 1.0000000000 0.8540927832 0.5541250500 0.8298672892  Biso 1.0 C
C38 1.0000000000 0.1459072168 0.9757745059 0.7000322668  Biso 1.0 C
C39 1.0000000000 0.7242577608 0.0242254941 0.1701327108  Biso 1.0 C
C40 1.0000000000 0.2757422392 0.4458749500 0.2999677332  Biso 1.0 C
C41 1.0000000000 0.1701327108 0.7242577608 0.0242254941  Biso 1.0 C
C42 1.0000000000 0.2999677332 0.2757422392 0.4458749500  Biso 1.0 C
C43 1.0000000000 0.8298672892 0.8540927832 0.5541250500  Biso 1.0 C
C44 1.0000000000 0.7000322668 0.1459072168 0.9757745059  Biso 1.0 C
C45 1.0000000000 0.9757745059 0.7000322668 0.1459072168  Biso 1.0 C
C46 1.0000000000 0.5541250500 0.8298672892 0.8540927832  Biso 1.0 C
C47 1.0000000000 0.4458749500 0.2999677332 0.2757422392  Biso 1.0 C
C48 1.0000000000 0.0242254941 0.1701327108 0.7242577608  Biso 1.0 C
C49 1.0000000000 0.1459072168 0.4458749500 0.1701327108  Biso 1.0 C
C50 1.0000000000 0.8540927832 0.0242254941 0.2999677332  Biso 1.0 C
C51 1.0000000000 0.2757422392 0.9757745059 0.8298672892  Biso 1.0 C
C52 1.0000000000 0.7242577608 0.5541250500 0.7000322668  Biso 1.0 C
C53 1.0000000000 0.8298672892 0.2757422392 0.9757745059  Biso 1.0 C
C54 1.0000000000 0.7000322668 0.7242577608 0.5541250500  Biso 1.0 C
C55 1.0000000000 0.1701327108 0.1459072168 0.4458749500  Biso 1.0 C
C56 1.0000000000 0.2999677332 0.8540927832 0.0242254941  Biso 1.0 C
C57 1.0000000000 0.0242254941 0.2999677332 0.8540927832  Biso 1.0 C
C58 1.0000000000 0.4458749500 0.1701327108 0.1459072168  Biso 1.0 C
C59 1.0000000000 0.5541250500 0.7000322668 0.7242577608  Biso 1.0 C
C60 1.0000000000 0.9757745059 0.8298672892 0.2757422392  Biso 1.0 C
Sr61 1.0000000000 0.2249097070 0.7249097070 0.5000000000  Biso 1.0 Sr
Sr62 1.0000000000 0.7750902930 0.2750902930 0.5000000000  Biso 1.0 Sr
Sr63 1.0000000000 0.5000000000 0.2249097070 0.7249097070  Biso 1.0 Sr
Sr64 1.0000000000 0.5000000000 0.7750902930 0.2750902930  Biso 1.0 Sr
Sr65 1.0000000000 0.2750902930 0.5000000000 0.7750902930  Biso 1.0 Sr
Sr66 1.0000000000 0.7249097070 0.5000000000 0.2249097070  Biso 1.0 Sr
