# AFLOW.org Repositories
# C6Cr3W20   [FCC,FCC,cF116] (STD_PRIM doi
data_C6Cr3W20
_pd_phase_name C6Cr3W20
_cell_length_a  8.2479121786
_cell_length_b  8.2479121786
_cell_length_c  8.2479121786
_cell_angle_alpha  60.0000000000
_cell_angle_beta  60.0000000000
_cell_angle_gamma  60.0000000000
_symmetry_space_group_name_H-M  'P1'
_symmetry_Int_Tables_Number  1
loop_
_symmetry_equiv_pos_site_id
_symmetry_equiv_pos_as_xyz
  1  x,y,z
loop_
 _atom_site_label
 _atom_site_occupancy
 _atom_site_fract_x
 _atom_site_fract_y
 _atom_site_fract_z
 _atom_site_thermal_displace_type
 _atom_site_B_iso_or_equiv
 _atom_site_type_symbol
C1 1.0000000000 0.7193385779 0.2806614221 0.7193385779  Biso 1.0 C
C2 1.0000000000 0.2806614221 0.7193385779 0.2806614221  Biso 1.0 C
C3 1.0000000000 0.7193385779 0.2806614221 0.2806614221  Biso 1.0 C
C4 1.0000000000 0.2806614221 0.7193385779 0.7193385779  Biso 1.0 C
C5 1.0000000000 0.2806614221 0.2806614221 0.7193385779  Biso 1.0 C
C6 1.0000000000 0.7193385779 0.7193385779 0.2806614221  Biso 1.0 C
Cr7 1.0000000000 0.0000000000 0.0000000000 0.0000000000  Biso 1.0 Cr
Cr8 1.0000000000 0.7500000000 0.7500000000 0.7500000000  Biso 1.0 Cr
Cr9 1.0000000000 0.2500000000 0.2500000000 0.2500000000  Biso 1.0 Cr
W10 1.0000000000 0.0000000000 0.3361884312 0.0000000000  Biso 1.0 W
W11 1.0000000000 0.3361884312 0.0000000000 0.6638115688  Biso 1.0 W
W12 1.0000000000 0.6638115688 0.0000000000 0.3361884312  Biso 1.0 W
W13 1.0000000000 0.0000000000 0.6638115688 0.0000000000  Biso 1.0 W
W14 1.0000000000 0.0000000000 0.3361884312 0.6638115688  Biso 1.0 W
W15 1.0000000000 0.6638115688 0.0000000000 0.0000000000  Biso 1.0 W
W16 1.0000000000 0.3361884312 0.0000000000 0.0000000000  Biso 1.0 W
W17 1.0000000000 0.0000000000 0.6638115688 0.3361884312  Biso 1.0 W
W18 1.0000000000 0.6638115688 0.3361884312 0.0000000000  Biso 1.0 W
W19 1.0000000000 0.0000000000 0.0000000000 0.3361884312  Biso 1.0 W
W20 1.0000000000 0.0000000000 0.0000000000 0.6638115688  Biso 1.0 W
W21 1.0000000000 0.3361884312 0.6638115688 0.0000000000  Biso 1.0 W
W22 1.0000000000 0.6200674386 0.1397976841 0.6200674386  Biso 1.0 W
W23 1.0000000000 0.1397976841 0.6200674386 0.6200674386  Biso 1.0 W
W24 1.0000000000 0.6200674386 0.6200674386 0.1397976841  Biso 1.0 W
W25 1.0000000000 0.6200674386 0.6200674386 0.6200674386  Biso 1.0 W
W26 1.0000000000 0.8602023159 0.3799325614 0.3799325614  Biso 1.0 W
W27 1.0000000000 0.3799325614 0.8602023159 0.3799325614  Biso 1.0 W
W28 1.0000000000 0.3799325614 0.3799325614 0.8602023159  Biso 1.0 W
W29 1.0000000000 0.3799325614 0.3799325614 0.3799325614  Biso 1.0 W
