# AFLOW.org Repositories
# Ca1Cd2P2   [HEX,HEX,hP5] (STD_PRIM doi:1
data_Ca1Cd2P2
_pd_phase_name Ca1Cd2P2
_cell_length_a  4.3046956800
_cell_length_b  4.3046956800
_cell_length_c  7.0463536287
_cell_angle_alpha  90.0000000000
_cell_angle_beta  90.0000000000
_cell_angle_gamma  120.0000000000
_symmetry_space_group_name_H-M  'P1'
_symmetry_Int_Tables_Number  1
loop_
_symmetry_equiv_pos_site_id
_symmetry_equiv_pos_as_xyz
  1  x,y,z
loop_
 _atom_site_label
 _atom_site_occupancy
 _atom_site_fract_x
 _atom_site_fract_y
 _atom_site_fract_z
 _atom_site_thermal_displace_type
 _atom_site_B_iso_or_equiv
 _atom_site_type_symbol
Ca1 1.0000000000 0.0000000000 0.0000000000 0.0000000000  Biso 1.0 Ca
Cd2 1.0000000000 0.3333242529 0.6666757314 0.6375136640  Biso 1.0 Cd
Cd3 1.0000000000 0.6666757471 0.3333242686 0.3624863360  Biso 1.0 Cd
P4 1.0000000000 0.3333255769 0.6666744263 0.2392061529  Biso 1.0 P
P5 1.0000000000 0.6666744231 0.3333255737 0.7607938471  Biso 1.0 P
