# AFLOW.org Repositories
# Ca1Hg3   [HEX,HEX,hP8] (STD_PRIM doi:10.
data_Ca1Hg3
_pd_phase_name Ca1Hg3
_cell_length_a  6.7706919802
_cell_length_b  6.7706919802
_cell_length_c  5.1597514021
_cell_angle_alpha  90.0000000000
_cell_angle_beta  90.0000000000
_cell_angle_gamma  120.0000000000
_symmetry_space_group_name_H-M  'P1'
_symmetry_Int_Tables_Number  1
loop_
_symmetry_equiv_pos_site_id
_symmetry_equiv_pos_as_xyz
  1  x,y,z
loop_
 _atom_site_label
 _atom_site_occupancy
 _atom_site_fract_x
 _atom_site_fract_y
 _atom_site_fract_z
 _atom_site_thermal_displace_type
 _atom_site_B_iso_or_equiv
 _atom_site_type_symbol
Ca1 1.0000000000 0.6666805250 0.3333610500 0.2500000000  Biso 1.0 Ca
Ca2 1.0000000000 0.3333194750 0.6666389500 0.7500000000  Biso 1.0 Ca
Hg3 1.0000000000 0.6731741088 0.8365995851 0.2500000000  Biso 1.0 Hg
Hg4 1.0000000000 0.1634254763 0.8365995851 0.2500000000  Biso 1.0 Hg
Hg5 1.0000000000 0.1634050109 0.3268100217 0.2500000000  Biso 1.0 Hg
Hg6 1.0000000000 0.3268258912 0.1634004149 0.7500000000  Biso 1.0 Hg
Hg7 1.0000000000 0.8365745237 0.1634004149 0.7500000000  Biso 1.0 Hg
Hg8 1.0000000000 0.8365949891 0.6731899783 0.7500000000  Biso 1.0 Hg
