# AFLOW.org Repositories
# Ca1Mn1O2.98   [ORC,ORC,oP20] (STD_PRIM d
data_Ca1Mn1O2.98
_pd_phase_name Ca1Mn1O2.98
_cell_length_a  5.3325503570
_cell_length_b  5.4119005927
_cell_length_c  7.5689855517
_cell_angle_alpha  90.0000000000
_cell_angle_beta  90.0000000000
_cell_angle_gamma  90.0000000000
_symmetry_space_group_name_H-M  'P1'
_symmetry_Int_Tables_Number  1
loop_
_symmetry_equiv_pos_site_id
_symmetry_equiv_pos_as_xyz
  1  x,y,z
loop_
 _atom_site_label
 _atom_site_occupancy
 _atom_site_fract_x
 _atom_site_fract_y
 _atom_site_fract_z
 _atom_site_thermal_displace_type
 _atom_site_B_iso_or_equiv
 _atom_site_type_symbol
Ca1 1.0000000000 0.9905683314 0.9530332184 0.7500000000  Biso 1.0 Ca
Ca2 1.0000000000 0.4905933179 0.5469812594 0.2500000000  Biso 1.0 Ca
Ca3 1.0000000000 0.0095336471 0.0470092924 0.2500000000  Biso 1.0 Ca
Ca4 1.0000000000 0.5095155358 0.4530215674 0.7500000000  Biso 1.0 Ca
Mn5 1.0000000000 0.5000975016 0.0000000000 0.0000000000  Biso 1.0 Mn
Mn6 1.0000000000 0.0000000000 0.4999813818 0.0000000000  Biso 1.0 Mn
Mn7 1.0000000000 0.5000975016 0.0000000000 0.5000034657  Biso 1.0 Mn
Mn8 1.0000000000 0.0000000000 0.4999813818 0.5000122096  Biso 1.0 Mn
O9 1.0000000000 0.0797300428 0.5192718597 0.7500000000  Biso 1.0 O
O10 1.0000000000 0.5797664095 0.9807571256 0.2500000000  Biso 1.0 O
O11 1.0000000000 0.9203483373 0.4807654509 0.2500000000  Biso 1.0 O
O12 1.0000000000 0.4203473059 0.0192377597 0.7500000000  Biso 1.0 O
O13 1.0000000000 0.7055655696 0.7075895911 0.9587465187  Biso 1.0 O
O14 1.0000000000 0.2055662666 0.7924228572 0.0412836495  Biso 1.0 O
O15 1.0000000000 0.2945255565 0.2924205148 0.4587172631  Biso 1.0 O
O16 1.0000000000 0.7945189019 0.2075946757 0.5412621338  Biso 1.0 O
O17 1.0000000000 0.2945255565 0.2924205148 0.0412827369  Biso 1.0 O
O18 1.0000000000 0.7945189019 0.2075946757 0.9587378662  Biso 1.0 O
O19 1.0000000000 0.7055655696 0.7075895911 0.5412534813  Biso 1.0 O
O20 1.0000000000 0.2055662666 0.7924228572 0.4587163505  Biso 1.0 O
