# AFLOW.org Repositories
# Ca1O3Ti1   [ORC,ORC,oP20] (STD_PRIM doi:
data_Ca1O3Ti1
_pd_phase_name Ca1O3Ti1
_cell_length_a  5.4342552434
_cell_length_b  5.5446699540
_cell_length_c  7.7455873807
_cell_angle_alpha  90.0000000000
_cell_angle_beta  90.0000000000
_cell_angle_gamma  90.0000000000
_symmetry_space_group_name_H-M  'P1'
_symmetry_Int_Tables_Number  1
loop_
_symmetry_equiv_pos_site_id
_symmetry_equiv_pos_as_xyz
  1  x,y,z
loop_
 _atom_site_label
 _atom_site_occupancy
 _atom_site_fract_x
 _atom_site_fract_y
 _atom_site_fract_z
 _atom_site_thermal_displace_type
 _atom_site_B_iso_or_equiv
 _atom_site_type_symbol
Ca1 1.0000000000 0.9909207408 0.9562558375 0.7500000000  Biso 1.0 Ca
Ca2 1.0000000000 0.4909207408 0.5437441625 0.2500000000  Biso 1.0 Ca
Ca3 1.0000000000 0.0090792592 0.0437441625 0.2500000000  Biso 1.0 Ca
Ca4 1.0000000000 0.5090792592 0.4562558375 0.7500000000  Biso 1.0 Ca
O5 1.0000000000 0.4190800695 0.0228489926 0.7500000000  Biso 1.0 O
O6 1.0000000000 0.9190800695 0.4771510074 0.2500000000  Biso 1.0 O
O7 1.0000000000 0.5809199305 0.9771510074 0.2500000000  Biso 1.0 O
O8 1.0000000000 0.0809199305 0.5228489926 0.7500000000  Biso 1.0 O
O9 1.0000000000 0.7935268319 0.2075595858 0.5424176439  Biso 1.0 O
O10 1.0000000000 0.2935268319 0.2924404142 0.4575823561  Biso 1.0 O
O11 1.0000000000 0.2064731681 0.7924404142 0.0424176439  Biso 1.0 O
O12 1.0000000000 0.7064731681 0.7075595858 0.9575823561  Biso 1.0 O
O13 1.0000000000 0.2064731681 0.7924404142 0.4575823561  Biso 1.0 O
O14 1.0000000000 0.7064731681 0.7075595858 0.5424176439  Biso 1.0 O
O15 1.0000000000 0.7935268319 0.2075595858 0.9575823561  Biso 1.0 O
O16 1.0000000000 0.2935268319 0.2924404142 0.0424176439  Biso 1.0 O
Ti17 1.0000000000 0.5000000000 0.0000000000 0.0000000000  Biso 1.0 Ti
Ti18 1.0000000000 0.0000000000 0.5000000000 0.0000000000  Biso 1.0 Ti
Ti19 1.0000000000 0.5000000000 0.0000000000 0.5000000000  Biso 1.0 Ti
Ti20 1.0000000000 0.0000000000 0.5000000000 0.5000000000  Biso 1.0 Ti
