# AFLOW.org Repositories
# Ca1O3Rh1   [ORC,ORC,oP20] (STD_PRIM doi:
data_Ca1O3Rh1
_pd_phase_name Ca1O3Rh1
_cell_length_a  5.3727524254
_cell_length_b  5.6855480836
_cell_length_c  7.6934097746
_cell_angle_alpha  90.0000000000
_cell_angle_beta  90.0000000000
_cell_angle_gamma  90.0000000000
_symmetry_space_group_name_H-M  'P1'
_symmetry_Int_Tables_Number  1
loop_
_symmetry_equiv_pos_site_id
_symmetry_equiv_pos_as_xyz
  1  x,y,z
loop_
 _atom_site_label
 _atom_site_occupancy
 _atom_site_fract_x
 _atom_site_fract_y
 _atom_site_fract_z
 _atom_site_thermal_displace_type
 _atom_site_B_iso_or_equiv
 _atom_site_type_symbol
Ca1 1.0000000000 0.0167324781 0.0626671181 0.7500000000  Biso 1.0 Ca
Ca2 1.0000000000 0.5167324781 0.4373328819 0.2500000000  Biso 1.0 Ca
Ca3 1.0000000000 0.9832675219 0.9373328819 0.2500000000  Biso 1.0 Ca
Ca4 1.0000000000 0.4832675219 0.5626671181 0.7500000000  Biso 1.0 Ca
O5 1.0000000000 0.8931131210 0.4556627638 0.7500000000  Biso 1.0 O
O6 1.0000000000 0.3931131210 0.0443372362 0.2500000000  Biso 1.0 O
O7 1.0000000000 0.1068868790 0.5443372362 0.2500000000  Biso 1.0 O
O8 1.0000000000 0.6068868790 0.9556627638 0.7500000000  Biso 1.0 O
O9 1.0000000000 0.3046145391 0.3054935025 0.9462440277  Biso 1.0 O
O10 1.0000000000 0.8046145391 0.1945064975 0.0537559723  Biso 1.0 O
O11 1.0000000000 0.6953854609 0.6945064975 0.4462440277  Biso 1.0 O
O12 1.0000000000 0.1953854609 0.8054935025 0.5537559723  Biso 1.0 O
O13 1.0000000000 0.6953854609 0.6945064975 0.0537559723  Biso 1.0 O
O14 1.0000000000 0.1953854609 0.8054935025 0.9462440277  Biso 1.0 O
O15 1.0000000000 0.3046145391 0.3054935025 0.5537559723  Biso 1.0 O
O16 1.0000000000 0.8046145391 0.1945064975 0.4462440277  Biso 1.0 O
Rh17 1.0000000000 0.0000000000 0.5000000000 0.0000000000  Biso 1.0 Rh
Rh18 1.0000000000 0.5000000000 0.0000000000 0.0000000000  Biso 1.0 Rh
Rh19 1.0000000000 0.0000000000 0.5000000000 0.5000000000  Biso 1.0 Rh
Rh20 1.0000000000 0.5000000000 0.0000000000 0.5000000000  Biso 1.0 Rh
