# AFLOW.org Repositories
# Ca1P1   [HEX,HEX,hP12] (STD_PRIM doi:10.
data_Ca1P1
_pd_phase_name Ca1P1
_cell_length_a  7.6599263925
_cell_length_b  7.6599263925
_cell_length_c  5.7205153141
_cell_angle_alpha  90.0000000000
_cell_angle_beta  90.0000000000
_cell_angle_gamma  120.0000000000
_symmetry_space_group_name_H-M  'P1'
_symmetry_Int_Tables_Number  1
loop_
_symmetry_equiv_pos_site_id
_symmetry_equiv_pos_as_xyz
  1  x,y,z
loop_
 _atom_site_label
 _atom_site_occupancy
 _atom_site_fract_x
 _atom_site_fract_y
 _atom_site_fract_z
 _atom_site_thermal_displace_type
 _atom_site_B_iso_or_equiv
 _atom_site_type_symbol
Ca1 1.0000000000 0.0000000000 0.6916823856 0.0000000000  Biso 1.0 Ca
Ca2 1.0000000000 0.3083176144 0.3083176144 0.0000000000  Biso 1.0 Ca
Ca3 1.0000000000 0.6916756026 0.0000000000 0.0000000000  Biso 1.0 Ca
Ca4 1.0000000000 0.0000000000 0.3575491102 0.5000000000  Biso 1.0 Ca
Ca5 1.0000000000 0.6424508898 0.6424508898 0.5000000000  Biso 1.0 Ca
Ca6 1.0000000000 0.3575521566 0.0000000000 0.5000000000  Biso 1.0 Ca
P7 1.0000000000 0.0000000000 0.0000000000 0.3034440025  Biso 1.0 P
P8 1.0000000000 0.0000000000 0.0000000000 0.6965559975  Biso 1.0 P
P9 1.0000000000 0.6666683674 0.3333351851 0.2016203280  Biso 1.0 P
P10 1.0000000000 0.6666683674 0.3333351851 0.7983796720  Biso 1.0 P
P11 1.0000000000 0.3333331823 0.6666648149 0.7983796720  Biso 1.0 P
P12 1.0000000000 0.3333331823 0.6666648149 0.2016203280  Biso 1.0 P
