# AFLOW.org Repositories
# Ca1Pd5   [HEX,HEX,hP6] (STD_PRIM doi:10.
data_Ca1Pd5
_pd_phase_name Ca1Pd5
_cell_length_a  5.3229395958
_cell_length_b  5.3229395958
_cell_length_c  4.4876465180
_cell_angle_alpha  90.0000000000
_cell_angle_beta  90.0000000000
_cell_angle_gamma  120.0000000000
_symmetry_space_group_name_H-M  'P1'
_symmetry_Int_Tables_Number  1
loop_
_symmetry_equiv_pos_site_id
_symmetry_equiv_pos_as_xyz
  1  x,y,z
loop_
 _atom_site_label
 _atom_site_occupancy
 _atom_site_fract_x
 _atom_site_fract_y
 _atom_site_fract_z
 _atom_site_thermal_displace_type
 _atom_site_B_iso_or_equiv
 _atom_site_type_symbol
Ca1 1.0000000000 0.0000000000 0.0000000000 0.0000000000  Biso 1.0 Ca
Pd2 1.0000000000 0.3333542030 0.6666771015 0.0000000000  Biso 1.0 Pd
Pd3 1.0000000000 0.6666457970 0.3333228985 0.0000000000  Biso 1.0 Pd
Pd4 1.0000000000 0.5000000000 0.5000000000 0.5000000000  Biso 1.0 Pd
Pd5 1.0000000000 0.5000000000 0.0000000000 0.5000000000  Biso 1.0 Pd
Pd6 1.0000000000 0.0000000000 0.5000000000 0.5000000000  Biso 1.0 Pd
