# AFLOW.org Repositories
# Ca1S3Zr1   [ORC,ORC,oP20] (STD_PRIM doi:
data_Ca1S3Zr1
_pd_phase_name Ca1S3Zr1
_cell_length_a  6.5867886315
_cell_length_b  7.0837604073
_cell_length_c  9.6664469000
_cell_angle_alpha  90.0000000000
_cell_angle_beta  90.0000000000
_cell_angle_gamma  90.0000000000
_symmetry_space_group_name_H-M  'P1'
_symmetry_Int_Tables_Number  1
loop_
_symmetry_equiv_pos_site_id
_symmetry_equiv_pos_as_xyz
  1  x,y,z
loop_
 _atom_site_label
 _atom_site_occupancy
 _atom_site_fract_x
 _atom_site_fract_y
 _atom_site_fract_z
 _atom_site_thermal_displace_type
 _atom_site_B_iso_or_equiv
 _atom_site_type_symbol
Ca1 1.0000000000 0.9668988094 0.0925121968 0.7500000000  Biso 1.0 Ca
Ca2 1.0000000000 0.4668988094 0.4074878032 0.2500000000  Biso 1.0 Ca
Ca3 1.0000000000 0.0331011906 0.9074878032 0.2500000000  Biso 1.0 Ca
Ca4 1.0000000000 0.5331011906 0.5925121968 0.7500000000  Biso 1.0 Ca
S5 1.0000000000 0.3752084123 0.9651937948 0.7500000000  Biso 1.0 S
S6 1.0000000000 0.8752084123 0.5348062052 0.2500000000  Biso 1.0 S
S7 1.0000000000 0.6247915877 0.0348062052 0.2500000000  Biso 1.0 S
S8 1.0000000000 0.1247915877 0.4651937948 0.7500000000  Biso 1.0 S
S9 1.0000000000 0.1826229465 0.1899836671 0.0636640030  Biso 1.0 S
S10 1.0000000000 0.6826229465 0.3100163329 0.9363359970  Biso 1.0 S
S11 1.0000000000 0.8173770535 0.8100163329 0.5636640030  Biso 1.0 S
S12 1.0000000000 0.3173770535 0.6899836671 0.4363359970  Biso 1.0 S
S13 1.0000000000 0.8173770535 0.8100163329 0.9363359970  Biso 1.0 S
S14 1.0000000000 0.3173770535 0.6899836671 0.0636640030  Biso 1.0 S
S15 1.0000000000 0.1826229465 0.1899836671 0.4363359970  Biso 1.0 S
S16 1.0000000000 0.6826229465 0.3100163329 0.5636640030  Biso 1.0 S
Zr17 1.0000000000 0.5000000000 0.0000000000 0.0000000000  Biso 1.0 Zr
Zr18 1.0000000000 0.0000000000 0.5000000000 0.0000000000  Biso 1.0 Zr
Zr19 1.0000000000 0.5000000000 0.0000000000 0.5000000000  Biso 1.0 Zr
Zr20 1.0000000000 0.0000000000 0.5000000000 0.5000000000  Biso 1.0 Zr
