# AFLOW.org Repositories
# Ca2Ge1   [ORC,ORC,oP12] (STD_PRIM doi:10
data_Ca2Ge1
_pd_phase_name Ca2Ge1
_cell_length_a  4.8429021302
_cell_length_b  7.6652333561
_cell_length_c  9.0824091606
_cell_angle_alpha  90.0000000000
_cell_angle_beta  90.0000000000
_cell_angle_gamma  90.0000000000
_symmetry_space_group_name_H-M  'P1'
_symmetry_Int_Tables_Number  1
loop_
_symmetry_equiv_pos_site_id
_symmetry_equiv_pos_as_xyz
  1  x,y,z
loop_
 _atom_site_label
 _atom_site_occupancy
 _atom_site_fract_x
 _atom_site_fract_y
 _atom_site_fract_z
 _atom_site_thermal_displace_type
 _atom_site_B_iso_or_equiv
 _atom_site_type_symbol
Ca1 1.0000000000 0.2500000000 0.6533253897 0.9261912245  Biso 1.0 Ca
Ca2 1.0000000000 0.7500000000 0.8466746103 0.4261912245  Biso 1.0 Ca
Ca3 1.0000000000 0.7500000000 0.3466746103 0.0738087755  Biso 1.0 Ca
Ca4 1.0000000000 0.2500000000 0.1533253897 0.5738087755  Biso 1.0 Ca
Ca5 1.0000000000 0.2500000000 0.5206664286 0.3228200101  Biso 1.0 Ca
Ca6 1.0000000000 0.7500000000 0.9793335714 0.8228200101  Biso 1.0 Ca
Ca7 1.0000000000 0.7500000000 0.4793335714 0.6771799899  Biso 1.0 Ca
Ca8 1.0000000000 0.2500000000 0.0206664286 0.1771799899  Biso 1.0 Ca
Ge9 1.0000000000 0.2500000000 0.2527584120 0.8937856390  Biso 1.0 Ge
Ge10 1.0000000000 0.7500000000 0.2472415880 0.3937856390  Biso 1.0 Ge
Ge11 1.0000000000 0.7500000000 0.7472415880 0.1062143610  Biso 1.0 Ge
Ge12 1.0000000000 0.2500000000 0.7527584120 0.6062143610  Biso 1.0 Ge
