# AFLOW.org Repositories
# Ca2Sb1   [BCT,BCT2,tI12] (STD_PRIM doi:1
data_Ca2Sb1
_pd_phase_name Ca2Sb1
_cell_length_a  9.0343667952
_cell_length_b  9.0343667952
_cell_length_c  9.0343667952
_cell_angle_alpha  149.3123846776
_cell_angle_beta  149.3123846776
_cell_angle_gamma  43.9516936714
_symmetry_space_group_name_H-M  'P1'
_symmetry_Int_Tables_Number  1
loop_
_symmetry_equiv_pos_site_id
_symmetry_equiv_pos_as_xyz
  1  x,y,z
loop_
 _atom_site_label
 _atom_site_occupancy
 _atom_site_fract_x
 _atom_site_fract_y
 _atom_site_fract_z
 _atom_site_thermal_displace_type
 _atom_site_B_iso_or_equiv
 _atom_site_type_symbol
Ca1 1.0000000000 0.3200039862 0.3200039862 0.0000000000  Biso 1.0 Ca
Ca2 1.0000000000 0.6697422383 0.6697422383 0.0000000000  Biso 1.0 Ca
Ca3 1.0000000000 0.9947538451 0.4947538451 0.5000000000  Biso 1.0 Ca
Ca4 1.0000000000 0.4947538451 0.9947538451 0.5000000000  Biso 1.0 Ca
Sb5 1.0000000000 0.1306347399 0.1306347399 0.0000000000  Biso 1.0 Sb
Sb6 1.0000000000 0.8590113455 0.8590113455 0.0000000000  Biso 1.0 Sb
