# AFLOW.org Repositories
# Ca3N2   [BCC,BCC,cI80] (STD_PRIM doi:10.
data_Ca3N2
_pd_phase_name Ca3N2
_cell_length_a  9.9373310925
_cell_length_b  9.9373310925
_cell_length_c  9.9373310925
_cell_angle_alpha  109.4712206345
_cell_angle_beta  109.4712206345
_cell_angle_gamma  109.4712206345
_symmetry_space_group_name_H-M  'P1'
_symmetry_Int_Tables_Number  1
loop_
_symmetry_equiv_pos_site_id
_symmetry_equiv_pos_as_xyz
  1  x,y,z
loop_
 _atom_site_label
 _atom_site_occupancy
 _atom_site_fract_x
 _atom_site_fract_y
 _atom_site_fract_z
 _atom_site_thermal_displace_type
 _atom_site_B_iso_or_equiv
 _atom_site_type_symbol
Ca1 1.0000000000 0.5438266752 0.5371062626 0.7723784857  Biso 1.0 Ca
Ca2 1.0000000000 0.9561733248 0.7285518105 0.9932795875  Biso 1.0 Ca
Ca3 1.0000000000 0.2647277770 0.7714481895 0.7276215143  Biso 1.0 Ca
Ca4 1.0000000000 0.2352722230 0.9628937374 0.5067204125  Biso 1.0 Ca
Ca5 1.0000000000 0.7723784857 0.5438266752 0.5371062626  Biso 1.0 Ca
Ca6 1.0000000000 0.9932795875 0.9561733248 0.7285518105  Biso 1.0 Ca
Ca7 1.0000000000 0.7276215143 0.2647277770 0.7714481895  Biso 1.0 Ca
Ca8 1.0000000000 0.5067204125 0.2352722230 0.9628937374  Biso 1.0 Ca
Ca9 1.0000000000 0.5371062626 0.7723784857 0.5438266752  Biso 1.0 Ca
Ca10 1.0000000000 0.7285518105 0.9932795875 0.9561733248  Biso 1.0 Ca
Ca11 1.0000000000 0.7714481895 0.7276215143 0.2647277770  Biso 1.0 Ca
Ca12 1.0000000000 0.9628937374 0.5067204125 0.2352722230  Biso 1.0 Ca
Ca13 1.0000000000 0.4561733248 0.4628937374 0.2276215143  Biso 1.0 Ca
Ca14 1.0000000000 0.0438266752 0.2714481895 0.0067204125  Biso 1.0 Ca
Ca15 1.0000000000 0.7352722230 0.2285518105 0.2723784857  Biso 1.0 Ca
Ca16 1.0000000000 0.7647277770 0.0371062626 0.4932795875  Biso 1.0 Ca
Ca17 1.0000000000 0.2276215143 0.4561733248 0.4628937374  Biso 1.0 Ca
Ca18 1.0000000000 0.0067204125 0.0438266752 0.2714481895  Biso 1.0 Ca
Ca19 1.0000000000 0.2723784857 0.7352722230 0.2285518105  Biso 1.0 Ca
Ca20 1.0000000000 0.4932795875 0.7647277770 0.0371062626  Biso 1.0 Ca
Ca21 1.0000000000 0.4628937374 0.2276215143 0.4561733248  Biso 1.0 Ca
Ca22 1.0000000000 0.2714481895 0.0067204125 0.0438266752  Biso 1.0 Ca
Ca23 1.0000000000 0.2285518105 0.2723784857 0.7352722230  Biso 1.0 Ca
Ca24 1.0000000000 0.0371062626 0.4932795875 0.7647277770  Biso 1.0 Ca
N25 1.0000000000 0.5000000000 0.5000000000 0.5000000000  Biso 1.0 N
N26 1.0000000000 0.0000000000 0.5000000000 0.0000000000  Biso 1.0 N
N27 1.0000000000 0.5000000000 0.0000000000 0.0000000000  Biso 1.0 N
N28 1.0000000000 0.0000000000 0.0000000000 0.5000000000  Biso 1.0 N
N29 1.0000000000 0.9603518434 0.2500000000 0.2103518434  Biso 1.0 N
N30 1.0000000000 0.5396481566 0.7500000000 0.2896481566  Biso 1.0 N
N31 1.0000000000 0.2103518434 0.9603518434 0.2500000000  Biso 1.0 N
N32 1.0000000000 0.2896481566 0.5396481566 0.7500000000  Biso 1.0 N
N33 1.0000000000 0.2500000000 0.2103518434 0.9603518434  Biso 1.0 N
N34 1.0000000000 0.7500000000 0.2896481566 0.5396481566  Biso 1.0 N
N35 1.0000000000 0.0396481566 0.7500000000 0.7896481566  Biso 1.0 N
N36 1.0000000000 0.4603518434 0.2500000000 0.7103518434  Biso 1.0 N
N37 1.0000000000 0.7896481566 0.0396481566 0.7500000000  Biso 1.0 N
N38 1.0000000000 0.7103518434 0.4603518434 0.2500000000  Biso 1.0 N
N39 1.0000000000 0.7500000000 0.7896481566 0.0396481566  Biso 1.0 N
N40 1.0000000000 0.2500000000 0.7103518434 0.4603518434  Biso 1.0 N
