# AFLOW.org Repositories
# Cd1Cu1F4   [BCT,BCT2,tI24] (STD_PRIM doi
data_Cd1Cu1F4
_pd_phase_name Cd1Cu1F4
_cell_length_a  6.4633287509
_cell_length_b  6.4633287509
_cell_length_c  6.4633287509
_cell_angle_alpha  130.5542041167
_cell_angle_beta  130.5542041167
_cell_angle_gamma  72.5223190713
_symmetry_space_group_name_H-M  'P1'
_symmetry_Int_Tables_Number  1
loop_
_symmetry_equiv_pos_site_id
_symmetry_equiv_pos_as_xyz
  1  x,y,z
loop_
 _atom_site_label
 _atom_site_occupancy
 _atom_site_fract_x
 _atom_site_fract_y
 _atom_site_fract_z
 _atom_site_thermal_displace_type
 _atom_site_B_iso_or_equiv
 _atom_site_type_symbol
Cd1 1.0000000000 0.2500000000 0.2500000000 0.0000000000  Biso 1.0 Cd
Cd2 1.0000000000 0.7500000000 0.7500000000 0.0000000000  Biso 1.0 Cd
Cu3 1.0000000000 0.0000000000 0.5000000000 0.5000000000  Biso 1.0 Cu
Cu4 1.0000000000 0.5000000000 0.0000000000 0.5000000000  Biso 1.0 Cu
F5 1.0000000000 0.3093639618 0.4446531303 0.5000000000  Biso 1.0 F
F6 1.0000000000 0.9446531303 0.8093639618 0.5000000000  Biso 1.0 F
F7 1.0000000000 0.4446531303 0.9446531303 0.1352891684  Biso 1.0 F
F8 1.0000000000 0.8093639618 0.3093639618 0.8647108316  Biso 1.0 F
F9 1.0000000000 0.1906360382 0.6906360382 0.1352891684  Biso 1.0 F
F10 1.0000000000 0.5553468697 0.0553468697 0.8647108316  Biso 1.0 F
F11 1.0000000000 0.0553468697 0.1906360382 0.5000000000  Biso 1.0 F
F12 1.0000000000 0.6906360382 0.5553468697 0.5000000000  Biso 1.0 F
