# AFLOW.org Repositories
# Cd1Dy1Ga1   [HEX,HEX,hP9] (STD_PRIM doi:
data_Cd1Dy1Ga1
_pd_phase_name Cd1Dy1Ga1
_cell_length_a  7.2674899886
_cell_length_b  7.2674899886
_cell_length_c  4.4070897368
_cell_angle_alpha  90.0000000000
_cell_angle_beta  90.0000000000
_cell_angle_gamma  120.0000000000
_symmetry_space_group_name_H-M  'P1'
_symmetry_Int_Tables_Number  1
loop_
_symmetry_equiv_pos_site_id
_symmetry_equiv_pos_as_xyz
  1  x,y,z
loop_
 _atom_site_label
 _atom_site_occupancy
 _atom_site_fract_x
 _atom_site_fract_y
 _atom_site_fract_z
 _atom_site_thermal_displace_type
 _atom_site_B_iso_or_equiv
 _atom_site_type_symbol
Cd1 1.0000000000 0.0000000000 0.7513382941 0.0000000000  Biso 1.0 Cd
Cd2 1.0000000000 0.2486617059 0.2486617059 0.0000000000  Biso 1.0 Cd
Cd3 1.0000000000 0.7513299732 0.0000000000 0.0000000000  Biso 1.0 Cd
Dy4 1.0000000000 0.0000000000 0.4238268469 0.5000000000  Biso 1.0 Dy
Dy5 1.0000000000 0.5761731531 0.5761731531 0.5000000000  Biso 1.0 Dy
Dy6 1.0000000000 0.4238279681 0.0000000000 0.5000000000  Biso 1.0 Dy
Ga7 1.0000000000 0.6666674344 0.3333368692 0.0000000000  Biso 1.0 Ga
Ga8 1.0000000000 0.3333305652 0.6666631308 0.0000000000  Biso 1.0 Ga
Ga9 1.0000000000 0.0000000000 0.0000000000 0.5000000000  Biso 1.0 Ga
