# AFLOW.org Repositories
# Cd1Ho4Rh1   [FCC,FCC,cF96] (STD_PRIM doi
data_Cd1Ho4Rh1
_pd_phase_name Cd1Ho4Rh1
_cell_length_a  9.5553328583
_cell_length_b  9.5553328583
_cell_length_c  9.5553328583
_cell_angle_alpha  60.0000000000
_cell_angle_beta  60.0000000000
_cell_angle_gamma  60.0000000000
_symmetry_space_group_name_H-M  'P1'
_symmetry_Int_Tables_Number  1
loop_
_symmetry_equiv_pos_site_id
_symmetry_equiv_pos_as_xyz
  1  x,y,z
loop_
 _atom_site_label
 _atom_site_occupancy
 _atom_site_fract_x
 _atom_site_fract_y
 _atom_site_fract_z
 _atom_site_thermal_displace_type
 _atom_site_B_iso_or_equiv
 _atom_site_type_symbol
Cd1 1.0000000000 0.4188708860 0.7433873420 0.4188708860  Biso 1.0 Cd
Cd2 1.0000000000 0.4188708860 0.4188708860 0.7433873420  Biso 1.0 Cd
Cd3 1.0000000000 0.7433873420 0.4188708860 0.4188708860  Biso 1.0 Cd
Cd4 1.0000000000 0.4188708860 0.4188708860 0.4188708860  Biso 1.0 Cd
Ho5 1.0000000000 0.4354450963 0.0645549037 0.4354450963  Biso 1.0 Ho
Ho6 1.0000000000 0.0645549037 0.4354450963 0.0645549037  Biso 1.0 Ho
Ho7 1.0000000000 0.0645549037 0.0645549037 0.4354450963  Biso 1.0 Ho
Ho8 1.0000000000 0.4354450963 0.4354450963 0.0645549037  Biso 1.0 Ho
Ho9 1.0000000000 0.4354450963 0.0645549037 0.0645549037  Biso 1.0 Ho
Ho10 1.0000000000 0.0645549037 0.4354450963 0.4354450963  Biso 1.0 Ho
Ho11 1.0000000000 0.8111434502 0.1888565498 0.8111434502  Biso 1.0 Ho
Ho12 1.0000000000 0.1888565498 0.8111434502 0.1888565498  Biso 1.0 Ho
Ho13 1.0000000000 0.1888565498 0.1888565498 0.8111434502  Biso 1.0 Ho
Ho14 1.0000000000 0.8111434502 0.8111434502 0.1888565498  Biso 1.0 Ho
Ho15 1.0000000000 0.8111434502 0.1888565498 0.1888565498  Biso 1.0 Ho
Ho16 1.0000000000 0.1888565498 0.8111434502 0.8111434502  Biso 1.0 Ho
Ho17 1.0000000000 0.6510397366 0.0468807902 0.6510397366  Biso 1.0 Ho
Ho18 1.0000000000 0.6510397366 0.6510397366 0.0468807902  Biso 1.0 Ho
Ho19 1.0000000000 0.0468807902 0.6510397366 0.6510397366  Biso 1.0 Ho
Ho20 1.0000000000 0.6510397366 0.6510397366 0.6510397366  Biso 1.0 Ho
Rh21 1.0000000000 0.8575010494 0.4274968518 0.8575010494  Biso 1.0 Rh
Rh22 1.0000000000 0.8575010494 0.8575010494 0.4274968518  Biso 1.0 Rh
Rh23 1.0000000000 0.4274968518 0.8575010494 0.8575010494  Biso 1.0 Rh
Rh24 1.0000000000 0.8575010494 0.8575010494 0.8575010494  Biso 1.0 Rh
