# AFLOW.org Repositories
# Cd1Mg1   [ORC,ORC,oP4] (STD_PRIM doi:10.
data_Cd1Mg1
_pd_phase_name Cd1Mg1
_cell_length_a  3.2319013272
_cell_length_b  5.0291903591
_cell_length_c  5.2635558051
_cell_angle_alpha  90.0000000000
_cell_angle_beta  90.0000000000
_cell_angle_gamma  90.0000000000
_symmetry_space_group_name_H-M  'P1'
_symmetry_Int_Tables_Number  1
loop_
_symmetry_equiv_pos_site_id
_symmetry_equiv_pos_as_xyz
  1  x,y,z
loop_
 _atom_site_label
 _atom_site_occupancy
 _atom_site_fract_x
 _atom_site_fract_y
 _atom_site_fract_z
 _atom_site_thermal_displace_type
 _atom_site_B_iso_or_equiv
 _atom_site_type_symbol
Cd1 1.0000000000 0.0000000000 0.2500000000 0.8198799619  Biso 1.0 Cd
Cd2 1.0000000000 0.0000000000 0.7500000000 0.1801200381  Biso 1.0 Cd
Mg3 1.0000000000 0.5000000000 0.2500000000 0.3190623733  Biso 1.0 Mg
Mg4 1.0000000000 0.5000000000 0.7500000000 0.6809376267  Biso 1.0 Mg
