# AFLOW.org Repositories
# Cd1O2Rb2   [ORC,ORC,oP20] (STD_PRIM doi:
data_Cd1O2Rb2
_pd_phase_name Cd1O2Rb2
_cell_length_a  6.3548608650
_cell_length_b  6.5329476846
_cell_length_c  10.7172711719
_cell_angle_alpha  90.0000000000
_cell_angle_beta  90.0000000000
_cell_angle_gamma  90.0000000000
_symmetry_space_group_name_H-M  'P1'
_symmetry_Int_Tables_Number  1
loop_
_symmetry_equiv_pos_site_id
_symmetry_equiv_pos_as_xyz
  1  x,y,z
loop_
 _atom_site_label
 _atom_site_occupancy
 _atom_site_fract_x
 _atom_site_fract_y
 _atom_site_fract_z
 _atom_site_thermal_displace_type
 _atom_site_B_iso_or_equiv
 _atom_site_type_symbol
Cd1 1.0000000000 0.2500000000 0.9674917914 0.0000000000  Biso 1.0 Cd
Cd2 1.0000000000 0.7500000000 0.5325082086 0.5000000000  Biso 1.0 Cd
Cd3 1.0000000000 0.7500000000 0.0325082086 0.0000000000  Biso 1.0 Cd
Cd4 1.0000000000 0.2500000000 0.4674917914 0.5000000000  Biso 1.0 Cd
O5 1.0000000000 0.4841909898 0.6902763508 0.4046064378  Biso 1.0 O
O6 1.0000000000 0.9841909898 0.8097236492 0.0953935622  Biso 1.0 O
O7 1.0000000000 0.0158090102 0.6902763508 0.5953935622  Biso 1.0 O
O8 1.0000000000 0.5158090102 0.8097236492 0.9046064378  Biso 1.0 O
O9 1.0000000000 0.5158090102 0.3097236492 0.5953935622  Biso 1.0 O
O10 1.0000000000 0.0158090102 0.1902763508 0.9046064378  Biso 1.0 O
O11 1.0000000000 0.9841909898 0.3097236492 0.4046064378  Biso 1.0 O
O12 1.0000000000 0.4841909898 0.1902763508 0.0953935622  Biso 1.0 O
Rb13 1.0000000000 0.1023035877 0.8897215963 0.3441027087  Biso 1.0 Rb
Rb14 1.0000000000 0.6023035877 0.6102784037 0.1558972913  Biso 1.0 Rb
Rb15 1.0000000000 0.3976964123 0.8897215963 0.6558972913  Biso 1.0 Rb
Rb16 1.0000000000 0.8976964123 0.6102784037 0.8441027087  Biso 1.0 Rb
Rb17 1.0000000000 0.8976964123 0.1102784037 0.6558972913  Biso 1.0 Rb
Rb18 1.0000000000 0.3976964123 0.3897215963 0.8441027087  Biso 1.0 Rb
Rb19 1.0000000000 0.6023035877 0.1102784037 0.3441027087  Biso 1.0 Rb
Rb20 1.0000000000 0.1023035877 0.3897215963 0.1558972913  Biso 1.0 Rb
