# AFLOW.org Repositories
# Cd1O2   [CUB,CUB,cP12] (STD_PRIM doi:10.
data_Cd1O2
_pd_phase_name Cd1O2
_cell_length_a  5.3847902322
_cell_length_b  5.3847902322
_cell_length_c  5.3847902322
_cell_angle_alpha  90.0000000000
_cell_angle_beta  90.0000000000
_cell_angle_gamma  90.0000000000
_symmetry_space_group_name_H-M  'P1'
_symmetry_Int_Tables_Number  1
loop_
_symmetry_equiv_pos_site_id
_symmetry_equiv_pos_as_xyz
  1  x,y,z
loop_
 _atom_site_label
 _atom_site_occupancy
 _atom_site_fract_x
 _atom_site_fract_y
 _atom_site_fract_z
 _atom_site_thermal_displace_type
 _atom_site_B_iso_or_equiv
 _atom_site_type_symbol
Cd1 1.0000000000 0.5000000000 0.5000000000 0.5000000000  Biso 1.0 Cd
Cd2 1.0000000000 0.0000000000 0.5000000000 0.0000000000  Biso 1.0 Cd
Cd3 1.0000000000 0.5000000000 0.0000000000 0.0000000000  Biso 1.0 Cd
Cd4 1.0000000000 0.0000000000 0.0000000000 0.5000000000  Biso 1.0 Cd
O5 1.0000000000 0.9194082826 0.9194082826 0.0805917174  Biso 1.0 O
O6 1.0000000000 0.5805917174 0.0805917174 0.5805917174  Biso 1.0 O
O7 1.0000000000 0.0805917174 0.4194082826 0.4194082826  Biso 1.0 O
O8 1.0000000000 0.4194082826 0.5805917174 0.9194082826  Biso 1.0 O
O9 1.0000000000 0.0805917174 0.0805917174 0.9194082826  Biso 1.0 O
O10 1.0000000000 0.4194082826 0.9194082826 0.4194082826  Biso 1.0 O
O11 1.0000000000 0.9194082826 0.5805917174 0.5805917174  Biso 1.0 O
O12 1.0000000000 0.5805917174 0.4194082826 0.0805917174  Biso 1.0 O
