# AFLOW.org Repositories
# Cd1Te1   [HEX,HEX,hP6] (STD_PRIM doi:10.
data_Cd1Te1
_pd_phase_name Cd1Te1
_cell_length_a  10.4875635122
_cell_length_b  4.5872378723
_cell_length_c  4.5904603215
_cell_angle_alpha  60.0933280570
_cell_angle_beta  90.0000000000
_cell_angle_gamma  90.0000000000
_symmetry_space_group_name_H-M  'P1'
_symmetry_Int_Tables_Number  1
loop_
_symmetry_equiv_pos_site_id
_symmetry_equiv_pos_as_xyz
  1  x,y,z
loop_
 _atom_site_label
 _atom_site_occupancy
 _atom_site_fract_x
 _atom_site_fract_y
 _atom_site_fract_z
 _atom_site_thermal_displace_type
 _atom_site_B_iso_or_equiv
 _atom_site_type_symbol
Cd1 1.0000000000 0.6666285683 0.5358893335 0.4641106665  Biso 1.0 Cd
Cd2 1.0000000000 0.3332359727 0.4640544566 0.0000000000  Biso 1.0 Cd
Cd3 1.0000000000 0.0000000000 0.0000000000 0.5357338858  Biso 1.0 Cd
Te4 1.0000000000 0.1666093645 0.5164426900 0.4835573100  Biso 1.0 Te
Te5 1.0000000000 0.8332260761 0.4834894869 0.0000000000  Biso 1.0 Te
Te6 1.0000000000 0.5002119427 0.0000000000 0.5164930627  Biso 1.0 Te
