# AFLOW.org Repositories
# Cd2O7Ta2   [FCC,FCC,cF88] (STD_PRIM doi:
data_Cd2O7Ta2
_pd_phase_name Cd2O7Ta2
_cell_length_a  7.4489707065
_cell_length_b  7.4489707065
_cell_length_c  7.4489707065
_cell_angle_alpha  60.0000000000
_cell_angle_beta  60.0000000000
_cell_angle_gamma  60.0000000000
_symmetry_space_group_name_H-M  'P1'
_symmetry_Int_Tables_Number  1
loop_
_symmetry_equiv_pos_site_id
_symmetry_equiv_pos_as_xyz
  1  x,y,z
loop_
 _atom_site_label
 _atom_site_occupancy
 _atom_site_fract_x
 _atom_site_fract_y
 _atom_site_fract_z
 _atom_site_thermal_displace_type
 _atom_site_B_iso_or_equiv
 _atom_site_type_symbol
Cd1 1.0000000000 0.6250000000 0.1250000000 0.6250000000  Biso 1.0 Cd
Cd2 1.0000000000 0.1250000000 0.6250000000 0.6250000000  Biso 1.0 Cd
Cd3 1.0000000000 0.6250000000 0.6250000000 0.6250000000  Biso 1.0 Cd
Cd4 1.0000000000 0.6250000000 0.6250000000 0.1250000000  Biso 1.0 Cd
O5 1.0000000000 0.5000000000 0.5000000000 0.5000000000  Biso 1.0 O
O6 1.0000000000 0.7500000000 0.7500000000 0.7500000000  Biso 1.0 O
O7 1.0000000000 0.1925172168 0.8074827832 0.8074827832  Biso 1.0 O
O8 1.0000000000 0.8074827832 0.1925172168 0.1925172168  Biso 1.0 O
O9 1.0000000000 0.1925172168 0.8074827832 0.1925172168  Biso 1.0 O
O10 1.0000000000 0.8074827832 0.1925172168 0.8074827832  Biso 1.0 O
O11 1.0000000000 0.8074827832 0.8074827832 0.1925172168  Biso 1.0 O
O12 1.0000000000 0.1925172168 0.1925172168 0.8074827832  Biso 1.0 O
O13 1.0000000000 0.4425172168 0.0574827832 0.4425172168  Biso 1.0 O
O14 1.0000000000 0.0574827832 0.4425172168 0.0574827832  Biso 1.0 O
O15 1.0000000000 0.4425172168 0.0574827832 0.0574827832  Biso 1.0 O
O16 1.0000000000 0.0574827832 0.4425172168 0.4425172168  Biso 1.0 O
O17 1.0000000000 0.4425172168 0.4425172168 0.0574827832  Biso 1.0 O
O18 1.0000000000 0.0574827832 0.0574827832 0.4425172168  Biso 1.0 O
Ta19 1.0000000000 0.1250000000 0.6250000000 0.1250000000  Biso 1.0 Ta
Ta20 1.0000000000 0.6250000000 0.1250000000 0.1250000000  Biso 1.0 Ta
Ta21 1.0000000000 0.1250000000 0.1250000000 0.1250000000  Biso 1.0 Ta
Ta22 1.0000000000 0.1250000000 0.1250000000 0.6250000000  Biso 1.0 Ta
