# AFLOW.org Repositories
# Ce1Ge1Ir1   [ORC,ORC,oP12] (STD_PRIM doi
data_Ce1Ge1Ir1
_pd_phase_name Ce1Ge1Ir1
_cell_length_a  4.3656049549
_cell_length_b  7.0189331886
_cell_length_c  7.6539467555
_cell_angle_alpha  90.0000000000
_cell_angle_beta  90.0000000000
_cell_angle_gamma  90.0000000000
_symmetry_space_group_name_H-M  'P1'
_symmetry_Int_Tables_Number  1
loop_
_symmetry_equiv_pos_site_id
_symmetry_equiv_pos_as_xyz
  1  x,y,z
loop_
 _atom_site_label
 _atom_site_occupancy
 _atom_site_fract_x
 _atom_site_fract_y
 _atom_site_fract_z
 _atom_site_thermal_displace_type
 _atom_site_B_iso_or_equiv
 _atom_site_type_symbol
Ce1 1.0000000000 0.2500000000 0.9888349195 0.3023789406  Biso 1.0 Ce
Ce2 1.0000000000 0.7500000000 0.5111650805 0.8023789406  Biso 1.0 Ce
Ce3 1.0000000000 0.7500000000 0.0111650805 0.6976210594  Biso 1.0 Ce
Ce4 1.0000000000 0.2500000000 0.4888349195 0.1976210594  Biso 1.0 Ce
Ge5 1.0000000000 0.2500000000 0.3209716099 0.5840650968  Biso 1.0 Ge
Ge6 1.0000000000 0.7500000000 0.1790283901 0.0840650968  Biso 1.0 Ge
Ge7 1.0000000000 0.7500000000 0.6790283901 0.4159349032  Biso 1.0 Ge
Ge8 1.0000000000 0.2500000000 0.8209716099 0.9159349032  Biso 1.0 Ge
Ir9 1.0000000000 0.2500000000 0.7135496960 0.5888593137  Biso 1.0 Ir
Ir10 1.0000000000 0.7500000000 0.7864503040 0.0888593137  Biso 1.0 Ir
Ir11 1.0000000000 0.7500000000 0.2864503040 0.4111406863  Biso 1.0 Ir
Ir12 1.0000000000 0.2500000000 0.2135496960 0.9111406863  Biso 1.0 Ir
