# AFLOW.org Repositories
# Ce1Pd1Sb2   [TET,TET,tP8] (STD_PRIM doi:
data_Ce1Pd1Sb2
_pd_phase_name Ce1Pd1Sb2
_cell_length_a  4.4102354412
_cell_length_b  4.4102354412
_cell_length_c  9.8174198770
_cell_angle_alpha  90.0000000000
_cell_angle_beta  90.0000000000
_cell_angle_gamma  90.0000000000
_symmetry_space_group_name_H-M  'P1'
_symmetry_Int_Tables_Number  1
loop_
_symmetry_equiv_pos_site_id
_symmetry_equiv_pos_as_xyz
  1  x,y,z
loop_
 _atom_site_label
 _atom_site_occupancy
 _atom_site_fract_x
 _atom_site_fract_y
 _atom_site_fract_z
 _atom_site_thermal_displace_type
 _atom_site_B_iso_or_equiv
 _atom_site_type_symbol
Ce1 1.0000000000 0.2500000000 0.2500000000 0.2534056638  Biso 1.0 Ce
Ce2 1.0000000000 0.7500000000 0.7500000000 0.7465943362  Biso 1.0 Ce
Pd3 1.0000000000 0.2500000000 0.7500000000 0.5000000000  Biso 1.0 Pd
Pd4 1.0000000000 0.7500000000 0.2500000000 0.5000000000  Biso 1.0 Pd
Sb5 1.0000000000 0.2500000000 0.7500000000 0.0000000000  Biso 1.0 Sb
Sb6 1.0000000000 0.7500000000 0.2500000000 0.0000000000  Biso 1.0 Sb
Sb7 1.0000000000 0.2500000000 0.2500000000 0.6682439286  Biso 1.0 Sb
Sb8 1.0000000000 0.7500000000 0.7500000000 0.3317560714  Biso 1.0 Sb
