# AFLOW.org Repositories
# Cl1Cs1O4   [CUB,CUB,cP24] (STD_CONV doi:
data_Cl1Cs1O4
_pd_phase_name Cl1Cs1O4
_cell_length_a  8.0692193732
_cell_length_b  8.0692193732
_cell_length_c  8.0692193732
_cell_angle_alpha  90.0000000000
_cell_angle_beta  90.0000000000
_cell_angle_gamma  90.0000000000
_symmetry_space_group_name_H-M  'P1'
_symmetry_Int_Tables_Number  1
loop_
_symmetry_equiv_pos_site_id
_symmetry_equiv_pos_as_xyz
  1  x,y,z
loop_
 _atom_site_label
 _atom_site_occupancy
 _atom_site_fract_x
 _atom_site_fract_y
 _atom_site_fract_z
 _atom_site_thermal_displace_type
 _atom_site_B_iso_or_equiv
 _atom_site_type_symbol
Cl1 1.0000000000 0.0000000000 0.0000000000 0.0000000000  Biso 1.0 Cl
Cl2 1.0000000000 0.5000000000 0.5000000000 0.0000000000  Biso 1.0 Cl
Cl3 1.0000000000 0.5000000000 0.0000000000 0.5000000000  Biso 1.0 Cl
Cl4 1.0000000000 0.0000000000 0.5000000000 0.5000000000  Biso 1.0 Cl
Cs5 1.0000000000 0.5000000000 0.0000000000 0.0000000000  Biso 1.0 Cs
Cs6 1.0000000000 0.0000000000 0.5000000000 0.0000000000  Biso 1.0 Cs
Cs7 1.0000000000 0.0000000000 0.0000000000 0.5000000000  Biso 1.0 Cs
Cs8 1.0000000000 0.5000000000 0.5000000000 0.5000000000  Biso 1.0 Cs
O9 1.0000000000 0.6048807317 0.3951192683 0.1048807317  Biso 1.0 O
O10 1.0000000000 0.1048807317 0.8951192683 0.1048807317  Biso 1.0 O
O11 1.0000000000 0.1048807317 0.3951192683 0.6048807317  Biso 1.0 O
O12 1.0000000000 0.6048807317 0.8951192683 0.6048807317  Biso 1.0 O
O13 1.0000000000 0.8951192683 0.1048807317 0.1048807317  Biso 1.0 O
O14 1.0000000000 0.3951192683 0.6048807317 0.1048807317  Biso 1.0 O
O15 1.0000000000 0.3951192683 0.1048807317 0.6048807317  Biso 1.0 O
O16 1.0000000000 0.8951192683 0.6048807317 0.6048807317  Biso 1.0 O
O17 1.0000000000 0.6048807317 0.1048807317 0.3951192683  Biso 1.0 O
O18 1.0000000000 0.1048807317 0.6048807317 0.3951192683  Biso 1.0 O
O19 1.0000000000 0.1048807317 0.1048807317 0.8951192683  Biso 1.0 O
O20 1.0000000000 0.6048807317 0.6048807317 0.8951192683  Biso 1.0 O
O21 1.0000000000 0.8951192683 0.3951192683 0.3951192683  Biso 1.0 O
O22 1.0000000000 0.3951192683 0.8951192683 0.3951192683  Biso 1.0 O
O23 1.0000000000 0.3951192683 0.3951192683 0.8951192683  Biso 1.0 O
O24 1.0000000000 0.8951192683 0.8951192683 0.8951192683  Biso 1.0 O
