# AFLOW.org Repositories
# Cl1Na1O3   [CUB,CUB,cP20] (STD_PRIM doi:
data_Cl1Na1O3
_pd_phase_name Cl1Na1O3
_cell_length_a  6.6739371810
_cell_length_b  6.6739371810
_cell_length_c  6.6739371810
_cell_angle_alpha  90.0000000000
_cell_angle_beta  90.0000000000
_cell_angle_gamma  90.0000000000
_symmetry_space_group_name_H-M  'P1'
_symmetry_Int_Tables_Number  1
loop_
_symmetry_equiv_pos_site_id
_symmetry_equiv_pos_as_xyz
  1  x,y,z
loop_
 _atom_site_label
 _atom_site_occupancy
 _atom_site_fract_x
 _atom_site_fract_y
 _atom_site_fract_z
 _atom_site_thermal_displace_type
 _atom_site_B_iso_or_equiv
 _atom_site_type_symbol
Cl1 1.0000000000 0.5838287129 0.5838287129 0.4161712871  Biso 1.0 Cl
Cl2 1.0000000000 0.9161712871 0.4161712871 0.9161712871  Biso 1.0 Cl
Cl3 1.0000000000 0.4161712871 0.0838287129 0.0838287129  Biso 1.0 Cl
Cl4 1.0000000000 0.0838287129 0.9161712871 0.5838287129  Biso 1.0 Cl
Na5 1.0000000000 0.9297485050 0.9297485050 0.0702514950  Biso 1.0 Na
Na6 1.0000000000 0.5702514950 0.0702514950 0.5702514950  Biso 1.0 Na
Na7 1.0000000000 0.0702514950 0.4297485050 0.4297485050  Biso 1.0 Na
Na8 1.0000000000 0.4297485050 0.5702514950 0.9297485050  Biso 1.0 Na
O9 1.0000000000 0.6982120594 0.4087523618 0.5017840699  Biso 1.0 O
O10 1.0000000000 0.8017879406 0.5912476382 0.0017840699  Biso 1.0 O
O11 1.0000000000 0.3017879406 0.9087523618 0.9982159301  Biso 1.0 O
O12 1.0000000000 0.1982120594 0.0912476382 0.4982159301  Biso 1.0 O
O13 1.0000000000 0.4982159301 0.6982120594 0.5912476382  Biso 1.0 O
O14 1.0000000000 0.9982159301 0.8017879406 0.4087523618  Biso 1.0 O
O15 1.0000000000 0.0017840699 0.3017879406 0.0912476382  Biso 1.0 O
O16 1.0000000000 0.5017840699 0.1982120594 0.9087523618  Biso 1.0 O
O17 1.0000000000 0.4087523618 0.4982159301 0.3017879406  Biso 1.0 O
O18 1.0000000000 0.5912476382 0.9982159301 0.1982120594  Biso 1.0 O
O19 1.0000000000 0.9087523618 0.0017840699 0.6982120594  Biso 1.0 O
O20 1.0000000000 0.0912476382 0.5017840699 0.8017879406  Biso 1.0 O
