# AFLOW.org Repositories
# Cl2F12Pb7   [HEX,HEX,hP21] (STD_PRIM doi
data_Cl2F12Pb7
_pd_phase_name Cl2F12Pb7
_cell_length_a  10.4267388051
_cell_length_b  10.4267388051
_cell_length_c  4.0290033765
_cell_angle_alpha  90.0000000000
_cell_angle_beta  90.0000000000
_cell_angle_gamma  120.0000000000
_symmetry_space_group_name_H-M  'P1'
_symmetry_Int_Tables_Number  1
loop_
_symmetry_equiv_pos_site_id
_symmetry_equiv_pos_as_xyz
  1  x,y,z
loop_
 _atom_site_label
 _atom_site_occupancy
 _atom_site_fract_x
 _atom_site_fract_y
 _atom_site_fract_z
 _atom_site_thermal_displace_type
 _atom_site_B_iso_or_equiv
 _atom_site_type_symbol
Cl1 1.0000000000 0.6666638738 0.3333299456 0.0000000000  Biso 1.0 Cl
Cl2 1.0000000000 0.3333406523 0.6666713836 0.5000000000  Biso 1.0 Cl
F3 1.0000000000 0.0362678542 0.6097504516 0.0000000000  Biso 1.0 F
F4 1.0000000000 0.3902401628 0.4265142537 0.0000000000  Biso 1.0 F
F5 1.0000000000 0.5734841248 0.9637349491 0.0000000000  Biso 1.0 F
F6 1.0000000000 0.1113331377 0.8340404801 0.5000000000  Biso 1.0 F
F7 1.0000000000 0.1659466652 0.2772871297 0.5000000000  Biso 1.0 F
F8 1.0000000000 0.7227138828 0.8886647399 0.5000000000  Biso 1.0 F
F9 1.0000000000 0.6195678333 0.5695633827 0.5000000000  Biso 1.0 F
F10 1.0000000000 0.4304277881 0.0499992045 0.5000000000  Biso 1.0 F
F11 1.0000000000 0.9499944017 0.3804357588 0.5000000000  Biso 1.0 F
F12 1.0000000000 0.8674693680 0.7928525247 0.0000000000  Biso 1.0 F
F13 1.0000000000 0.2071502235 0.0746081839 0.0000000000  Biso 1.0 F
F14 1.0000000000 0.9253857445 0.1325446202 0.0000000000  Biso 1.0 F
Pb15 1.0000000000 0.0000000000 0.0000000000 0.5000000000  Biso 1.0 Pb
Pb16 1.0000000000 0.6898473215 0.1070854938 0.5000000000  Biso 1.0 Pb
Pb17 1.0000000000 0.8929129057 0.5827576377 0.5000000000  Biso 1.0 Pb
Pb18 1.0000000000 0.4172455590 0.3101622996 0.5000000000  Biso 1.0 Pb
Pb19 1.0000000000 0.2846362645 0.8868290748 0.0000000000  Biso 1.0 Pb
Pb20 1.0000000000 0.1131678815 0.3977978062 0.0000000000  Biso 1.0 Pb
Pb21 1.0000000000 0.6021977308 0.7153710759 0.0000000000  Biso 1.0 Pb
