# AFLOW.org Repositories
# Cl2Zn1   [BCT,BCT2,tI12] (STD_PRIM doi:1
data_Cl2Zn1
_pd_phase_name Cl2Zn1
_cell_length_a  6.4216984124
_cell_length_b  6.4216984124
_cell_length_c  6.4216984124
_cell_angle_alpha  128.4969266585
_cell_angle_beta  128.4969266585
_cell_angle_gamma  75.8213980556
_symmetry_space_group_name_H-M  'P1'
_symmetry_Int_Tables_Number  1
loop_
_symmetry_equiv_pos_site_id
_symmetry_equiv_pos_as_xyz
  1  x,y,z
loop_
 _atom_site_label
 _atom_site_occupancy
 _atom_site_fract_x
 _atom_site_fract_y
 _atom_site_fract_z
 _atom_site_thermal_displace_type
 _atom_site_B_iso_or_equiv
 _atom_site_type_symbol
Cl1 1.0000000000 0.0978254436 0.1250000000 0.4728254436  Biso 1.0 Cl
Cl2 1.0000000000 0.6521745564 0.6250000000 0.5271745564  Biso 1.0 Cl
Cl3 1.0000000000 0.3750000000 0.9021745564 0.0271745564  Biso 1.0 Cl
Cl4 1.0000000000 0.8750000000 0.3478254436 0.9728254436  Biso 1.0 Cl
Zn5 1.0000000000 0.0000000000 0.0000000000 0.0000000000  Biso 1.0 Zn
Zn6 1.0000000000 0.7500000000 0.2500000000 0.5000000000  Biso 1.0 Zn
