# AFLOW.org Repositories
# Cl4Cu1Rb2   [ORCC,ORCC,oS28] (STD_PRIM d
data_Cl4Cu1Rb2
_pd_phase_name Cl4Cu1Rb2
_cell_length_a  8.6845333792
_cell_length_b  8.6845333792
_cell_length_c  7.3069921527
_cell_angle_alpha  90.0000000000
_cell_angle_beta  90.0000000000
_cell_angle_gamma  130.2728066149
_symmetry_space_group_name_H-M  'P1'
_symmetry_Int_Tables_Number  1
loop_
_symmetry_equiv_pos_site_id
_symmetry_equiv_pos_as_xyz
  1  x,y,z
loop_
 _atom_site_label
 _atom_site_occupancy
 _atom_site_fract_x
 _atom_site_fract_y
 _atom_site_fract_z
 _atom_site_thermal_displace_type
 _atom_site_B_iso_or_equiv
 _atom_site_type_symbol
Cl1 1.0000000000 0.2217850801 0.2217850801 0.2208438711  Biso 1.0 Cl
Cl2 1.0000000000 0.2782149199 0.2782149199 0.7208438711  Biso 1.0 Cl
Cl3 1.0000000000 0.7217850801 0.7217850801 0.2791561289  Biso 1.0 Cl
Cl4 1.0000000000 0.7782149199 0.7782149199 0.7791561289  Biso 1.0 Cl
Cl5 1.0000000000 0.1509354158 0.8490645842 0.0000000000  Biso 1.0 Cl
Cl6 1.0000000000 0.3490645842 0.6509354158 0.5000000000  Biso 1.0 Cl
Cl7 1.0000000000 0.8490645842 0.1509354158 0.0000000000  Biso 1.0 Cl
Cl8 1.0000000000 0.6509354158 0.3490645842 0.5000000000  Biso 1.0 Cl
Cu9 1.0000000000 0.0000000000 0.0000000000 0.0000000000  Biso 1.0 Cu
Cu10 1.0000000000 0.5000000000 0.5000000000 0.5000000000  Biso 1.0 Cu
Rb11 1.0000000000 0.3613271341 0.6386728659 0.0000000000  Biso 1.0 Rb
Rb12 1.0000000000 0.1386728659 0.8613271341 0.5000000000  Biso 1.0 Rb
Rb13 1.0000000000 0.6386728659 0.3613271341 0.0000000000  Biso 1.0 Rb
Rb14 1.0000000000 0.8613271341 0.1386728659 0.5000000000  Biso 1.0 Rb
