# AFLOW.org Repositories
# Cl4K2Pd1   [TET,TET,tP7] (STD_PRIM doi:1
data_Cl4K2Pd1
_pd_phase_name Cl4K2Pd1
_cell_length_a  7.1675641622
_cell_length_b  7.1675641622
_cell_length_c  4.1814781460
_cell_angle_alpha  90.0000000000
_cell_angle_beta  90.0000000000
_cell_angle_gamma  90.0000000000
_symmetry_space_group_name_H-M  'P1'
_symmetry_Int_Tables_Number  1
loop_
_symmetry_equiv_pos_site_id
_symmetry_equiv_pos_as_xyz
  1  x,y,z
loop_
 _atom_site_label
 _atom_site_occupancy
 _atom_site_fract_x
 _atom_site_fract_y
 _atom_site_fract_z
 _atom_site_thermal_displace_type
 _atom_site_B_iso_or_equiv
 _atom_site_type_symbol
Cl1 1.0000000000 0.2313088112 0.2313088112 0.0000000000  Biso 1.0 Cl
Cl2 1.0000000000 0.7686911888 0.7686911888 0.0000000000  Biso 1.0 Cl
Cl3 1.0000000000 0.7686911888 0.2313088112 0.0000000000  Biso 1.0 Cl
Cl4 1.0000000000 0.2313088112 0.7686911888 0.0000000000  Biso 1.0 Cl
K5 1.0000000000 0.0000000000 0.5000000000 0.5000000000  Biso 1.0 K
K6 1.0000000000 0.5000000000 0.0000000000 0.5000000000  Biso 1.0 K
Pd7 1.0000000000 0.0000000000 0.0000000000 0.0000000000  Biso 1.0 Pd
