# AFLOW.org Repositories
# Cl5Cs1Pb2   [BCT,BCT2,tI32] (STD_PRIM do
data_Cl5Cs1Pb2
_pd_phase_name Cl5Cs1Pb2
_cell_length_a  9.6657477476
_cell_length_b  9.6657477476
_cell_length_c  9.6657477476
_cell_angle_alpha  129.6423907125
_cell_angle_beta  129.6423907125
_cell_angle_gamma  73.9791125230
_symmetry_space_group_name_H-M  'P1'
_symmetry_Int_Tables_Number  1
loop_
_symmetry_equiv_pos_site_id
_symmetry_equiv_pos_as_xyz
  1  x,y,z
loop_
 _atom_site_label
 _atom_site_occupancy
 _atom_site_fract_x
 _atom_site_fract_y
 _atom_site_fract_z
 _atom_site_thermal_displace_type
 _atom_site_B_iso_or_equiv
 _atom_site_type_symbol
Cl1 1.0000000000 0.2754935426 0.4669956438 0.5000000000  Biso 1.0 Cl
Cl2 1.0000000000 0.9669956438 0.7754935426 0.5000000000  Biso 1.0 Cl
Cl3 1.0000000000 0.4669956438 0.9669956438 0.1915021012  Biso 1.0 Cl
Cl4 1.0000000000 0.7754935426 0.2754935426 0.8084978988  Biso 1.0 Cl
Cl5 1.0000000000 0.5330043562 0.0330043562 0.8084978988  Biso 1.0 Cl
Cl6 1.0000000000 0.2245064574 0.7245064574 0.1915021012  Biso 1.0 Cl
Cl7 1.0000000000 0.7245064574 0.5330043562 0.5000000000  Biso 1.0 Cl
Cl8 1.0000000000 0.0330043562 0.2245064574 0.5000000000  Biso 1.0 Cl
Cl9 1.0000000000 0.0000000000 0.0000000000 0.0000000000  Biso 1.0 Cl
Cl10 1.0000000000 0.5000000000 0.5000000000 0.0000000000  Biso 1.0 Cl
Cs11 1.0000000000 0.2500000000 0.2500000000 0.0000000000  Biso 1.0 Cs
Cs12 1.0000000000 0.7500000000 0.7500000000 0.0000000000  Biso 1.0 Cs
Pb13 1.0000000000 0.3310879472 0.1689120528 0.5000000000  Biso 1.0 Pb
Pb14 1.0000000000 0.6689120528 0.8310879472 0.5000000000  Biso 1.0 Pb
Pb15 1.0000000000 0.1689120528 0.6689120528 0.8378241055  Biso 1.0 Pb
Pb16 1.0000000000 0.8310879472 0.3310879472 0.1621758945  Biso 1.0 Pb
