# AFLOW.org Repositories
# Co1Dy1Sn1   [ORC,ORC,oP12] (STD_PRIM doi
data_Co1Dy1Sn1
_pd_phase_name Co1Dy1Sn1
_cell_length_a  4.6017956213
_cell_length_b  7.2742661019
_cell_length_c  7.3825721252
_cell_angle_alpha  90.0000000000
_cell_angle_beta  90.0000000000
_cell_angle_gamma  90.0000000000
_symmetry_space_group_name_H-M  'P1'
_symmetry_Int_Tables_Number  1
loop_
_symmetry_equiv_pos_site_id
_symmetry_equiv_pos_as_xyz
  1  x,y,z
loop_
 _atom_site_label
 _atom_site_occupancy
 _atom_site_fract_x
 _atom_site_fract_y
 _atom_site_fract_z
 _atom_site_thermal_displace_type
 _atom_site_B_iso_or_equiv
 _atom_site_type_symbol
Co1 1.0000000000 0.7500000000 0.5507340270 0.3605590675  Biso 1.0 Co
Co2 1.0000000000 0.2500000000 0.0507340270 0.1394409325  Biso 1.0 Co
Co3 1.0000000000 0.2500000000 0.4492659730 0.6394409325  Biso 1.0 Co
Co4 1.0000000000 0.7500000000 0.9492659730 0.8605590675  Biso 1.0 Co
Dy5 1.0000000000 0.7500000000 0.2936688965 0.0254571842  Biso 1.0 Dy
Dy6 1.0000000000 0.2500000000 0.7936688965 0.4745428158  Biso 1.0 Dy
Dy7 1.0000000000 0.2500000000 0.7063311035 0.9745428158  Biso 1.0 Dy
Dy8 1.0000000000 0.7500000000 0.2063311035 0.5254571842  Biso 1.0 Dy
Sn9 1.0000000000 0.7500000000 0.8886160597 0.2112413495  Biso 1.0 Sn
Sn10 1.0000000000 0.2500000000 0.3886160597 0.2887586505  Biso 1.0 Sn
Sn11 1.0000000000 0.2500000000 0.1113839403 0.7887586505  Biso 1.0 Sn
Sn12 1.0000000000 0.7500000000 0.6113839403 0.7112413495  Biso 1.0 Sn
