# AFLOW.org Repositories
# Co1La1Si3   [BCT,BCT2,tI10] (STD_PRIM do
data_Co1La1Si3
_pd_phase_name Co1La1Si3
_cell_length_a  5.6464386602
_cell_length_b  5.6464386602
_cell_length_c  5.6464386602
_cell_angle_alpha  136.6492643871
_cell_angle_beta  136.6492643871
_cell_angle_gamma  62.9781435872
_symmetry_space_group_name_H-M  'P1'
_symmetry_Int_Tables_Number  1
loop_
_symmetry_equiv_pos_site_id
_symmetry_equiv_pos_as_xyz
  1  x,y,z
loop_
 _atom_site_label
 _atom_site_occupancy
 _atom_site_fract_x
 _atom_site_fract_y
 _atom_site_fract_z
 _atom_site_thermal_displace_type
 _atom_site_B_iso_or_equiv
 _atom_site_type_symbol
Co1 1.0000000000 0.6634667740 0.6634667740 0.0000000000  Biso 1.0 Co
La2 1.0000000000 0.0055715810 0.0055715810 0.0000000000  Biso 1.0 La
Si3 1.0000000000 0.4261486780 0.4261486780 0.0000000000  Biso 1.0 Si
Si4 1.0000000000 0.2599064835 0.7599064835 0.5000000000  Biso 1.0 Si
Si5 1.0000000000 0.7599064835 0.2599064835 0.5000000000  Biso 1.0 Si
