# AFLOW.org Repositories
# Co1O1   [HEX,HEX,hP4] (STD_PRIM doi:10.1
data_Co1O1
_pd_phase_name Co1O1
_cell_length_a  3.3063908122
_cell_length_b  3.3063908122
_cell_length_c  5.2617620688
_cell_angle_alpha  90.0000000000
_cell_angle_beta  90.0000000000
_cell_angle_gamma  120.0000000000
_symmetry_space_group_name_H-M  'P1'
_symmetry_Int_Tables_Number  1
loop_
_symmetry_equiv_pos_site_id
_symmetry_equiv_pos_as_xyz
  1  x,y,z
loop_
 _atom_site_label
 _atom_site_occupancy
 _atom_site_fract_x
 _atom_site_fract_y
 _atom_site_fract_z
 _atom_site_thermal_displace_type
 _atom_site_B_iso_or_equiv
 _atom_site_type_symbol
Co1 1.0000000000 0.6666664630 0.3333335370 0.9960396579  Biso 1.0 Co
Co2 1.0000000000 0.3333335370 0.6666664630 0.4960396579  Biso 1.0 Co
O3 1.0000000000 0.6666727095 0.3333272905 0.3789603421  Biso 1.0 O
O4 1.0000000000 0.3333272905 0.6666727095 0.8789603421  Biso 1.0 O
