# AFLOW.org Repositories
# Co1O4Rh2   [FCC,FCC,cF56] (STD_PRIM doi:
data_Co1O4Rh2
_pd_phase_name Co1O4Rh2
_cell_length_a  6.1090370758
_cell_length_b  6.1090370758
_cell_length_c  6.1090370758
_cell_angle_alpha  60.0000000000
_cell_angle_beta  60.0000000000
_cell_angle_gamma  60.0000000000
_symmetry_space_group_name_H-M  'P1'
_symmetry_Int_Tables_Number  1
loop_
_symmetry_equiv_pos_site_id
_symmetry_equiv_pos_as_xyz
  1  x,y,z
loop_
 _atom_site_label
 _atom_site_occupancy
 _atom_site_fract_x
 _atom_site_fract_y
 _atom_site_fract_z
 _atom_site_thermal_displace_type
 _atom_site_B_iso_or_equiv
 _atom_site_type_symbol
Co1 1.0000000000 0.0000000000 0.0000000000 0.0000000000  Biso 1.0 Co
Co2 1.0000000000 0.2500000000 0.2500000000 0.2500000000  Biso 1.0 Co
O3 1.0000000000 0.3847626574 0.3847626574 0.3847626574  Biso 1.0 O
O4 1.0000000000 0.8457120277 0.3847626574 0.3847626574  Biso 1.0 O
O5 1.0000000000 0.3847626574 0.3847626574 0.8457120277  Biso 1.0 O
O6 1.0000000000 0.3847626574 0.8457120277 0.3847626574  Biso 1.0 O
O7 1.0000000000 0.4042879723 0.8652373426 0.8652373426  Biso 1.0 O
O8 1.0000000000 0.8652373426 0.8652373426 0.8652373426  Biso 1.0 O
O9 1.0000000000 0.8652373426 0.8652373426 0.4042879723  Biso 1.0 O
O10 1.0000000000 0.8652373426 0.4042879723 0.8652373426  Biso 1.0 O
Rh11 1.0000000000 0.6250000000 0.6250000000 0.6250000000  Biso 1.0 Rh
Rh12 1.0000000000 0.1250000000 0.6250000000 0.6250000000  Biso 1.0 Rh
Rh13 1.0000000000 0.6250000000 0.6250000000 0.1250000000  Biso 1.0 Rh
Rh14 1.0000000000 0.6250000000 0.1250000000 0.6250000000  Biso 1.0 Rh
