# AFLOW.org Repositories
# Co1P3   [BCC,BCC,cI32] (STD_PRIM doi:10.
data_Co1P3
_pd_phase_name Co1P3
_cell_length_a  6.6631617593
_cell_length_b  6.6631617593
_cell_length_c  6.6631617593
_cell_angle_alpha  109.4712206345
_cell_angle_beta  109.4712206345
_cell_angle_gamma  109.4712206345
_symmetry_space_group_name_H-M  'P1'
_symmetry_Int_Tables_Number  1
loop_
_symmetry_equiv_pos_site_id
_symmetry_equiv_pos_as_xyz
  1  x,y,z
loop_
 _atom_site_label
 _atom_site_occupancy
 _atom_site_fract_x
 _atom_site_fract_y
 _atom_site_fract_z
 _atom_site_thermal_displace_type
 _atom_site_B_iso_or_equiv
 _atom_site_type_symbol
Co1 1.0000000000 0.5000000000 0.0000000000 0.0000000000  Biso 1.0 Co
Co2 1.0000000000 0.5000000000 0.5000000000 0.5000000000  Biso 1.0 Co
Co3 1.0000000000 0.0000000000 0.0000000000 0.5000000000  Biso 1.0 Co
Co4 1.0000000000 0.0000000000 0.5000000000 0.0000000000  Biso 1.0 Co
P5 1.0000000000 0.3486321152 0.8539590612 0.2025911764  Biso 1.0 P
P6 1.0000000000 0.6513678848 0.8539590612 0.5053269461  Biso 1.0 P
P7 1.0000000000 0.3486321152 0.1460409388 0.4946730539  Biso 1.0 P
P8 1.0000000000 0.6513678848 0.1460409388 0.7974088236  Biso 1.0 P
P9 1.0000000000 0.1460409388 0.7974088236 0.6513678848  Biso 1.0 P
P10 1.0000000000 0.1460409388 0.4946730539 0.3486321152  Biso 1.0 P
P11 1.0000000000 0.8539590612 0.5053269461 0.6513678848  Biso 1.0 P
P12 1.0000000000 0.8539590612 0.2025911764 0.3486321152  Biso 1.0 P
P13 1.0000000000 0.4946730539 0.3486321152 0.1460409388  Biso 1.0 P
P14 1.0000000000 0.7974088236 0.6513678848 0.1460409388  Biso 1.0 P
P15 1.0000000000 0.2025911764 0.3486321152 0.8539590612  Biso 1.0 P
P16 1.0000000000 0.5053269461 0.6513678848 0.8539590612  Biso 1.0 P
