# AFLOW.org Repositories
# Co1Sn1Th1   [HEX,HEX,hP9] (STD_PRIM doi:
data_Co1Sn1Th1
_pd_phase_name Co1Sn1Th1
_cell_length_a  7.5602776037
_cell_length_b  7.5602776037
_cell_length_c  4.0655370920
_cell_angle_alpha  90.0000000000
_cell_angle_beta  90.0000000000
_cell_angle_gamma  120.0000000000
_symmetry_space_group_name_H-M  'P1'
_symmetry_Int_Tables_Number  1
loop_
_symmetry_equiv_pos_site_id
_symmetry_equiv_pos_as_xyz
  1  x,y,z
loop_
 _atom_site_label
 _atom_site_occupancy
 _atom_site_fract_x
 _atom_site_fract_y
 _atom_site_fract_z
 _atom_site_thermal_displace_type
 _atom_site_B_iso_or_equiv
 _atom_site_type_symbol
Co1 1.0000000000 0.0000000000 0.0000000000 0.5000000000  Biso 1.0 Co
Co2 1.0000000000 0.3333277425 0.6666676797 0.0000000000  Biso 1.0 Co
Co3 1.0000000000 0.6666676797 0.3333277425 0.0000000000  Biso 1.0 Co
Sn4 1.0000000000 0.2494564103 0.0000000000 0.0000000000  Biso 1.0 Sn
Sn5 1.0000000000 0.0000000000 0.2494564103 0.0000000000  Biso 1.0 Sn
Sn6 1.0000000000 0.7505433383 0.7505433383 0.0000000000  Biso 1.0 Sn
Th7 1.0000000000 0.5902545009 0.0000000000 0.5000000000  Biso 1.0 Th
Th8 1.0000000000 0.0000000000 0.5902545009 0.5000000000  Biso 1.0 Th
Th9 1.0000000000 0.4097472208 0.4097472208 0.5000000000  Biso 1.0 Th
