# AFLOW.org Repositories
# Co1Si2Y1   [ORCC,ORCC,oS16] (STD_PRIM do
data_Co1Si2Y1
_pd_phase_name Co1Si2Y1
_cell_length_a  8.2348848193
_cell_length_b  8.2348848193
_cell_length_c  3.9747420197
_cell_angle_alpha  90.0000000000
_cell_angle_beta  90.0000000000
_cell_angle_gamma  151.6306252951
_symmetry_space_group_name_H-M  'P1'
_symmetry_Int_Tables_Number  1
loop_
_symmetry_equiv_pos_site_id
_symmetry_equiv_pos_as_xyz
  1  x,y,z
loop_
 _atom_site_label
 _atom_site_occupancy
 _atom_site_fract_x
 _atom_site_fract_y
 _atom_site_fract_z
 _atom_site_thermal_displace_type
 _atom_site_B_iso_or_equiv
 _atom_site_type_symbol
Co1 1.0000000000 0.6820782698 0.3179217302 0.7500000000  Biso 1.0 Co
Co2 1.0000000000 0.3179217302 0.6820782698 0.2500000000  Biso 1.0 Co
Si3 1.0000000000 0.5440708837 0.4559291163 0.7500000000  Biso 1.0 Si
Si4 1.0000000000 0.4559291163 0.5440708837 0.2500000000  Biso 1.0 Si
Si5 1.0000000000 0.2499692702 0.7500307298 0.7500000000  Biso 1.0 Si
Si6 1.0000000000 0.7500307298 0.2499692702 0.2500000000  Biso 1.0 Si
Y7 1.0000000000 0.8932329592 0.1067670408 0.7500000000  Biso 1.0 Y
Y8 1.0000000000 0.1067670408 0.8932329592 0.2500000000  Biso 1.0 Y
