# AFLOW.org Repositories
# Cs3Ni1O2   [TET,TET,tP12] (STD_PRIM doi:
data_Cs3Ni1O2
_pd_phase_name Cs3Ni1O2
_cell_length_a  6.6088400104
_cell_length_b  6.6088400104
_cell_length_c  7.9354677130
_cell_angle_alpha  90.0000000000
_cell_angle_beta  90.0000000000
_cell_angle_gamma  90.0000000000
_symmetry_space_group_name_H-M  'P1'
_symmetry_Int_Tables_Number  1
loop_
_symmetry_equiv_pos_site_id
_symmetry_equiv_pos_as_xyz
  1  x,y,z
loop_
 _atom_site_label
 _atom_site_occupancy
 _atom_site_fract_x
 _atom_site_fract_y
 _atom_site_fract_z
 _atom_site_thermal_displace_type
 _atom_site_B_iso_or_equiv
 _atom_site_type_symbol
Cs1 1.0000000000 0.0000000000 0.5000000000 0.2500000000  Biso 1.0 Cs
Cs2 1.0000000000 0.0000000000 0.5000000000 0.7500000000  Biso 1.0 Cs
Cs3 1.0000000000 0.5000000000 0.0000000000 0.2500000000  Biso 1.0 Cs
Cs4 1.0000000000 0.5000000000 0.0000000000 0.7500000000  Biso 1.0 Cs
Cs5 1.0000000000 0.5000000000 0.5000000000 0.0000000000  Biso 1.0 Cs
Cs6 1.0000000000 0.0000000000 0.0000000000 0.5000000000  Biso 1.0 Cs
Ni7 1.0000000000 0.0000000000 0.0000000000 0.0000000000  Biso 1.0 Ni
Ni8 1.0000000000 0.5000000000 0.5000000000 0.5000000000  Biso 1.0 Ni
O9 1.0000000000 0.1921301209 0.8078698791 0.0000000000  Biso 1.0 O
O10 1.0000000000 0.8078698791 0.1921301209 0.0000000000  Biso 1.0 O
O11 1.0000000000 0.6921301209 0.6921301209 0.5000000000  Biso 1.0 O
O12 1.0000000000 0.3078698791 0.3078698791 0.5000000000  Biso 1.0 O
