# AFLOW.org Repositories
# Cu1Nb3Te4   [HEX,HEX,hP16] (STD_PRIM doi
data_Cu1Nb3Te4
_pd_phase_name Cu1Nb3Te4
_cell_length_a  10.2194469722
_cell_length_b  10.2194469722
_cell_length_c  4.0936559568
_cell_angle_alpha  90.0000000000
_cell_angle_beta  90.0000000000
_cell_angle_gamma  120.0000000000
_symmetry_space_group_name_H-M  'P1'
_symmetry_Int_Tables_Number  1
loop_
_symmetry_equiv_pos_site_id
_symmetry_equiv_pos_as_xyz
  1  x,y,z
loop_
 _atom_site_label
 _atom_site_occupancy
 _atom_site_fract_x
 _atom_site_fract_y
 _atom_site_fract_z
 _atom_site_thermal_displace_type
 _atom_site_B_iso_or_equiv
 _atom_site_type_symbol
Cu1 1.0000000000 0.0000000000 0.0000000000 0.0000000000  Biso 1.0 Cu
Cu2 1.0000000000 0.0000000000 0.0000000000 0.5000000000  Biso 1.0 Cu
Nb3 1.0000000000 0.6218987033 0.5072933751 0.2500000000  Biso 1.0 Nb
Nb4 1.0000000000 0.4927107102 0.1146256247 0.2500000000  Biso 1.0 Nb
Nb5 1.0000000000 0.8853939669 0.3781193162 0.2500000000  Biso 1.0 Nb
Nb6 1.0000000000 0.3781012967 0.4927066249 0.7500000000  Biso 1.0 Nb
Nb7 1.0000000000 0.5072892898 0.8853743753 0.7500000000  Biso 1.0 Nb
Nb8 1.0000000000 0.1146060331 0.6218806838 0.7500000000  Biso 1.0 Nb
Te9 1.0000000000 0.3333195074 0.6666497565 0.2500000000  Biso 1.0 Te
Te10 1.0000000000 0.6666804926 0.3333502435 0.7500000000  Biso 1.0 Te
Te11 1.0000000000 0.9551623039 0.6815295774 0.2500000000  Biso 1.0 Te
Te12 1.0000000000 0.3184530470 0.2736587000 0.2500000000  Biso 1.0 Te
Te13 1.0000000000 0.7263960646 0.0448245532 0.2500000000  Biso 1.0 Te
Te14 1.0000000000 0.0448376961 0.3184704226 0.7500000000  Biso 1.0 Te
Te15 1.0000000000 0.6815469530 0.7263413000 0.7500000000  Biso 1.0 Te
Te16 1.0000000000 0.2736039354 0.9551754468 0.7500000000  Biso 1.0 Te
