# AFLOW.org Repositories
# Cu1O2Sc1   [HEX,HEX,hP8] (STD_PRIM doi:1
data_Cu1O2Sc1
_pd_phase_name Cu1O2Sc1
_cell_length_a  3.2906331398
_cell_length_b  3.2906331398
_cell_length_c  11.4747005816
_cell_angle_alpha  90.0000000000
_cell_angle_beta  90.0000000000
_cell_angle_gamma  120.0000000000
_symmetry_space_group_name_H-M  'P1'
_symmetry_Int_Tables_Number  1
loop_
_symmetry_equiv_pos_site_id
_symmetry_equiv_pos_as_xyz
  1  x,y,z
loop_
 _atom_site_label
 _atom_site_occupancy
 _atom_site_fract_x
 _atom_site_fract_y
 _atom_site_fract_z
 _atom_site_thermal_displace_type
 _atom_site_B_iso_or_equiv
 _atom_site_type_symbol
Cu1 1.0000000000 0.6666968968 0.3333937936 0.2500000000  Biso 1.0 Cu
Cu2 1.0000000000 0.3333031032 0.6666062064 0.7500000000  Biso 1.0 Cu
O3 1.0000000000 0.6666734145 0.3333468290 0.0894715652  Biso 1.0 O
O4 1.0000000000 0.3333265855 0.6666531710 0.5894715652  Biso 1.0 O
O5 1.0000000000 0.3333265855 0.6666531710 0.9105284348  Biso 1.0 O
O6 1.0000000000 0.6666734145 0.3333468290 0.4105284348  Biso 1.0 O
Sc7 1.0000000000 0.0000000000 0.0000000000 0.0000000000  Biso 1.0 Sc
Sc8 1.0000000000 0.0000000000 0.0000000000 0.5000000000  Biso 1.0 Sc
