# AFLOW.org Repositories
# Cu1S2   [CUB,CUB,cP12] (STD_PRIM doi:10.
data_Cu1S2
_pd_phase_name Cu1S2
_cell_length_a  5.8235524482
_cell_length_b  5.8235524482
_cell_length_c  5.8235524482
_cell_angle_alpha  90.0000000000
_cell_angle_beta  90.0000000000
_cell_angle_gamma  90.0000000000
_symmetry_space_group_name_H-M  'P1'
_symmetry_Int_Tables_Number  1
loop_
_symmetry_equiv_pos_site_id
_symmetry_equiv_pos_as_xyz
  1  x,y,z
loop_
 _atom_site_label
 _atom_site_occupancy
 _atom_site_fract_x
 _atom_site_fract_y
 _atom_site_fract_z
 _atom_site_thermal_displace_type
 _atom_site_B_iso_or_equiv
 _atom_site_type_symbol
Cu1 1.0000000000 0.0000000000 0.0000000000 0.0000000000  Biso 1.0 Cu
Cu2 1.0000000000 0.5000000000 0.0000000000 0.5000000000  Biso 1.0 Cu
Cu3 1.0000000000 0.0000000000 0.5000000000 0.5000000000  Biso 1.0 Cu
Cu4 1.0000000000 0.5000000000 0.5000000000 0.0000000000  Biso 1.0 Cu
S5 1.0000000000 0.6002181792 0.6002181792 0.3997818208  Biso 1.0 S
S6 1.0000000000 0.8997818208 0.3997818208 0.8997818208  Biso 1.0 S
S7 1.0000000000 0.3997818208 0.1002181792 0.1002181792  Biso 1.0 S
S8 1.0000000000 0.1002181792 0.8997818208 0.6002181792  Biso 1.0 S
S9 1.0000000000 0.3997818208 0.3997818208 0.6002181792  Biso 1.0 S
S10 1.0000000000 0.1002181792 0.6002181792 0.1002181792  Biso 1.0 S
S11 1.0000000000 0.6002181792 0.8997818208 0.8997818208  Biso 1.0 S
S12 1.0000000000 0.8997818208 0.1002181792 0.3997818208  Biso 1.0 S
