# AFLOW.org Repositories
# Cu6O10Sr4   [ORCC,ORCC,oS20] (STD_PRIM d
data_Cu6O10Sr4
_pd_phase_name Cu6O10Sr4
_cell_length_a  9.9723899833
_cell_length_b  9.9723899833
_cell_length_c  3.5072875455
_cell_angle_alpha  90.0000000000
_cell_angle_beta  90.0000000000
_cell_angle_gamma  157.0812161308
_symmetry_space_group_name_H-M  'P1'
_symmetry_Int_Tables_Number  1
loop_
_symmetry_equiv_pos_site_id
_symmetry_equiv_pos_as_xyz
  1  x,y,z
loop_
 _atom_site_label
 _atom_site_occupancy
 _atom_site_fract_x
 _atom_site_fract_y
 _atom_site_fract_z
 _atom_site_thermal_displace_type
 _atom_site_B_iso_or_equiv
 _atom_site_type_symbol
Cu1 1.0000000000 0.0000000000 0.0000000000 0.0000000000  Biso 1.0 Cu
Cu2 1.0000000000 0.1992419240 0.8007580760 0.0000000000  Biso 1.0 Cu
Cu3 1.0000000000 0.8007580760 0.1992419240 0.0000000000  Biso 1.0 Cu
O4 1.0000000000 0.5000000000 0.5000000000 0.0000000000  Biso 1.0 O
O5 1.0000000000 0.1017918498 0.8982081502 0.0000000000  Biso 1.0 O
O6 1.0000000000 0.8982081502 0.1017918498 0.0000000000  Biso 1.0 O
O7 1.0000000000 0.7034599529 0.2965400471 0.0000000000  Biso 1.0 O
O8 1.0000000000 0.2965400471 0.7034599529 0.0000000000  Biso 1.0 O
Sr9 1.0000000000 0.6012035404 0.3987964596 0.5000000000  Biso 1.0 Sr
Sr10 1.0000000000 0.3987964596 0.6012035404 0.5000000000  Biso 1.0 Sr
