# AFLOW.org Repositories
# Dy1Ge1Pt1   [ORC,ORC,oP12] (STD_PRIM doi
data_Dy1Ge1Pt1
_pd_phase_name Dy1Ge1Pt1
_cell_length_a  4.3720077255
_cell_length_b  7.0294107368
_cell_length_c  7.5967550374
_cell_angle_alpha  90.0000000000
_cell_angle_beta  90.0000000000
_cell_angle_gamma  90.0000000000
_symmetry_space_group_name_H-M  'P1'
_symmetry_Int_Tables_Number  1
loop_
_symmetry_equiv_pos_site_id
_symmetry_equiv_pos_as_xyz
  1  x,y,z
loop_
 _atom_site_label
 _atom_site_occupancy
 _atom_site_fract_x
 _atom_site_fract_y
 _atom_site_fract_z
 _atom_site_thermal_displace_type
 _atom_site_B_iso_or_equiv
 _atom_site_type_symbol
Dy1 1.0000000000 0.2500000000 0.9970228772 0.2957427051  Biso 1.0 Dy
Dy2 1.0000000000 0.7500000000 0.5029771228 0.7957427051  Biso 1.0 Dy
Dy3 1.0000000000 0.7500000000 0.0029771228 0.7042572949  Biso 1.0 Dy
Dy4 1.0000000000 0.2500000000 0.4970228772 0.2042572949  Biso 1.0 Dy
Ge5 1.0000000000 0.2500000000 0.3091589472 0.5879585064  Biso 1.0 Ge
Ge6 1.0000000000 0.7500000000 0.1908410528 0.0879585064  Biso 1.0 Ge
Ge7 1.0000000000 0.7500000000 0.6908410528 0.4120414936  Biso 1.0 Ge
Ge8 1.0000000000 0.2500000000 0.8091589472 0.9120414936  Biso 1.0 Ge
Pt9 1.0000000000 0.2500000000 0.2045187044 0.9157620291  Biso 1.0 Pt
Pt10 1.0000000000 0.7500000000 0.2954812956 0.4157620291  Biso 1.0 Pt
Pt11 1.0000000000 0.7500000000 0.7954812956 0.0842379709  Biso 1.0 Pt
Pt12 1.0000000000 0.2500000000 0.7045187044 0.5842379709  Biso 1.0 Pt
