# AFLOW.org Repositories
# Dy1Ge1Ir1   [ORC,ORC,oP12] (STD_PRIM doi
data_Dy1Ge1Ir1
_pd_phase_name Dy1Ge1Ir1
_cell_length_a  4.3188910548
_cell_length_b  6.8884850836
_cell_length_c  7.5368131482
_cell_angle_alpha  90.0000000000
_cell_angle_beta  90.0000000000
_cell_angle_gamma  90.0000000000
_symmetry_space_group_name_H-M  'P1'
_symmetry_Int_Tables_Number  1
loop_
_symmetry_equiv_pos_site_id
_symmetry_equiv_pos_as_xyz
  1  x,y,z
loop_
 _atom_site_label
 _atom_site_occupancy
 _atom_site_fract_x
 _atom_site_fract_y
 _atom_site_fract_z
 _atom_site_thermal_displace_type
 _atom_site_B_iso_or_equiv
 _atom_site_type_symbol
Dy1 1.0000000000 0.2499999639 0.0000000000 0.3078687784  Biso 1.0 Dy
Dy2 1.0000000000 0.7499999935 0.4993302495 0.8077989337  Biso 1.0 Dy
Dy3 1.0000000000 0.7500000361 0.0000000000 0.6921312216  Biso 1.0 Dy
Dy4 1.0000000000 0.2500000065 0.5006697505 0.1922010663  Biso 1.0 Dy
Ge5 1.0000000000 0.2499999105 0.2926766631 0.6091729228  Biso 1.0 Ge
Ge6 1.0000000000 0.7499999923 0.2073307996 0.1091419633  Biso 1.0 Ge
Ge7 1.0000000000 0.7500000895 0.7073233369 0.3908270772  Biso 1.0 Ge
Ge8 1.0000000000 0.2500000077 0.7926692004 0.8908580367  Biso 1.0 Ge
Ir9 1.0000000000 0.2499999195 0.1596099124 0.9338548599  Biso 1.0 Ir
Ir10 1.0000000000 0.7499999674 0.3403646342 0.4338279721  Biso 1.0 Ir
Ir11 1.0000000000 0.7500000805 0.8403900876 0.0661451401  Biso 1.0 Ir
Ir12 1.0000000000 0.2500000326 0.6596353658 0.5661720279  Biso 1.0 Ir
