# AFLOW.org Repositories
# Dy1Ir1Si3   [BCT,BCT2,tI10] (STD_PRIM do
data_Dy1Ir1Si3
_pd_phase_name Dy1Ir1Si3
_cell_length_a  5.7058333231
_cell_length_b  5.7058333231
_cell_length_c  5.7058333231
_cell_angle_alpha  137.0527161611
_cell_angle_beta  137.0527161611
_cell_angle_gamma  62.3569505666
_symmetry_space_group_name_H-M  'P1'
_symmetry_Int_Tables_Number  1
loop_
_symmetry_equiv_pos_site_id
_symmetry_equiv_pos_as_xyz
  1  x,y,z
loop_
 _atom_site_label
 _atom_site_occupancy
 _atom_site_fract_x
 _atom_site_fract_y
 _atom_site_fract_z
 _atom_site_thermal_displace_type
 _atom_site_B_iso_or_equiv
 _atom_site_type_symbol
Dy1 1.0000000000 0.0023186504 0.0023186504 0.0000000000  Biso 1.0 Dy
Ir2 1.0000000000 0.6566541105 0.6566541105 0.0000000000  Biso 1.0 Ir
Si3 1.0000000000 0.4187954109 0.4187954109 0.0000000000  Biso 1.0 Si
Si4 1.0000000000 0.2686159141 0.7686159141 0.5000000000  Biso 1.0 Si
Si5 1.0000000000 0.7686159141 0.2686159141 0.5000000000  Biso 1.0 Si
