# AFLOW.org Repositories
# Dy3Rh1   [ORC,ORC,oP16] (STD_PRIM doi:10
data_Dy3Rh1
_pd_phase_name Dy3Rh1
_cell_length_a  6.2472770298
_cell_length_b  7.1091123714
_cell_length_c  9.5217468752
_cell_angle_alpha  90.0000000000
_cell_angle_beta  90.0000000000
_cell_angle_gamma  90.0000000000
_symmetry_space_group_name_H-M  'P1'
_symmetry_Int_Tables_Number  1
loop_
_symmetry_equiv_pos_site_id
_symmetry_equiv_pos_as_xyz
  1  x,y,z
loop_
 _atom_site_label
 _atom_site_occupancy
 _atom_site_fract_x
 _atom_site_fract_y
 _atom_site_fract_z
 _atom_site_thermal_displace_type
 _atom_site_B_iso_or_equiv
 _atom_site_type_symbol
Dy1 1.0000000000 0.8297465069 0.1778022798 0.9357231247  Biso 1.0 Dy
Dy2 1.0000000000 0.3297465069 0.3221977202 0.0642768753  Biso 1.0 Dy
Dy3 1.0000000000 0.1702534931 0.8221977202 0.4357231247  Biso 1.0 Dy
Dy4 1.0000000000 0.6702534931 0.6778022798 0.5642768753  Biso 1.0 Dy
Dy5 1.0000000000 0.1702534931 0.8221977202 0.0642768753  Biso 1.0 Dy
Dy6 1.0000000000 0.6702534931 0.6778022798 0.9357231247  Biso 1.0 Dy
Dy7 1.0000000000 0.8297465069 0.1778022798 0.5642768753  Biso 1.0 Dy
Dy8 1.0000000000 0.3297465069 0.3221977202 0.4357231247  Biso 1.0 Dy
Dy9 1.0000000000 0.3590537929 0.0353549718 0.7500000000  Biso 1.0 Dy
Dy10 1.0000000000 0.8590537929 0.4646450282 0.2500000000  Biso 1.0 Dy
Dy11 1.0000000000 0.6409462071 0.9646450282 0.2500000000  Biso 1.0 Dy
Dy12 1.0000000000 0.1409462071 0.5353549718 0.7500000000  Biso 1.0 Dy
Rh13 1.0000000000 0.5605792238 0.3805109218 0.7500000000  Biso 1.0 Rh
Rh14 1.0000000000 0.0605792238 0.1194890782 0.2500000000  Biso 1.0 Rh
Rh15 1.0000000000 0.4394207762 0.6194890782 0.2500000000  Biso 1.0 Rh
Rh16 1.0000000000 0.9394207762 0.8805109218 0.7500000000  Biso 1.0 Rh
