# AFLOW.org Repositories
# Dy4Ge6Ir7   [BCC,BCC,cI34] (STD_PRIM doi
data_Dy4Ge6Ir7
_pd_phase_name Dy4Ge6Ir7
_cell_length_a  7.2510369715
_cell_length_b  7.2510369715
_cell_length_c  7.2510369715
_cell_angle_alpha  109.4712206345
_cell_angle_beta  109.4712206345
_cell_angle_gamma  109.4712206345
_symmetry_space_group_name_H-M  'P1'
_symmetry_Int_Tables_Number  1
loop_
_symmetry_equiv_pos_site_id
_symmetry_equiv_pos_as_xyz
  1  x,y,z
loop_
 _atom_site_label
 _atom_site_occupancy
 _atom_site_fract_x
 _atom_site_fract_y
 _atom_site_fract_z
 _atom_site_thermal_displace_type
 _atom_site_B_iso_or_equiv
 _atom_site_type_symbol
Dy1 1.0000000000 0.5000000000 0.5000000000 0.5000000000  Biso 1.0 Dy
Dy2 1.0000000000 0.5000000000 0.0000000000 0.0000000000  Biso 1.0 Dy
Dy3 1.0000000000 0.0000000000 0.0000000000 0.5000000000  Biso 1.0 Dy
Dy4 1.0000000000 0.0000000000 0.5000000000 0.0000000000  Biso 1.0 Dy
Ge5 1.0000000000 0.3186324144 0.0000000000 0.3186324144  Biso 1.0 Ge
Ge6 1.0000000000 0.6813675856 0.0000000000 0.6813675856  Biso 1.0 Ge
Ge7 1.0000000000 0.3186324144 0.3186324144 0.0000000000  Biso 1.0 Ge
Ge8 1.0000000000 0.6813675856 0.6813675856 0.0000000000  Biso 1.0 Ge
Ge9 1.0000000000 0.0000000000 0.3186324144 0.3186324144  Biso 1.0 Ge
Ge10 1.0000000000 0.0000000000 0.6813675856 0.6813675856  Biso 1.0 Ge
Ir11 1.0000000000 0.2500000000 0.5000000000 0.7500000000  Biso 1.0 Ir
Ir12 1.0000000000 0.7500000000 0.5000000000 0.2500000000  Biso 1.0 Ir
Ir13 1.0000000000 0.7500000000 0.2500000000 0.5000000000  Biso 1.0 Ir
Ir14 1.0000000000 0.2500000000 0.7500000000 0.5000000000  Biso 1.0 Ir
Ir15 1.0000000000 0.5000000000 0.7500000000 0.2500000000  Biso 1.0 Ir
Ir16 1.0000000000 0.5000000000 0.2500000000 0.7500000000  Biso 1.0 Ir
Ir17 1.0000000000 0.0000000000 0.0000000000 0.0000000000  Biso 1.0 Ir
