# AFLOW.org Repositories
# Dy5Ru2   [MCLC,MCLC1,mS28] (STD_PRIM doi
data_Dy5Ru2
_pd_phase_name Dy5Ru2
_cell_length_a  8.4974007325
_cell_length_b  8.4974007325
_cell_length_c  7.2160784589
_cell_angle_alpha  83.0035936623
_cell_angle_beta  83.0035936623
_cell_angle_gamma  43.8350627017
_symmetry_space_group_name_H-M  'P1'
_symmetry_Int_Tables_Number  1
loop_
_symmetry_equiv_pos_site_id
_symmetry_equiv_pos_as_xyz
  1  x,y,z
loop_
 _atom_site_label
 _atom_site_occupancy
 _atom_site_fract_x
 _atom_site_fract_y
 _atom_site_fract_z
 _atom_site_thermal_displace_type
 _atom_site_B_iso_or_equiv
 _atom_site_type_symbol
Dy1 1.0000000000 0.5779283902 0.4220716098 0.2500000000  Biso 1.0 Dy
Dy2 1.0000000000 0.4220716098 0.5779283902 0.7500000000  Biso 1.0 Dy
Dy3 1.0000000000 0.0173876857 0.7954843586 0.4140429394  Biso 1.0 Dy
Dy4 1.0000000000 0.2045156414 0.9826123143 0.0859570606  Biso 1.0 Dy
Dy5 1.0000000000 0.9826123143 0.2045156414 0.5859570606  Biso 1.0 Dy
Dy6 1.0000000000 0.7954843586 0.0173876857 0.9140429394  Biso 1.0 Dy
Dy7 1.0000000000 0.3614641146 0.2052789412 0.3129527660  Biso 1.0 Dy
Dy8 1.0000000000 0.7947210588 0.6385358854 0.1870472340  Biso 1.0 Dy
Dy9 1.0000000000 0.6385358854 0.7947210588 0.6870472340  Biso 1.0 Dy
Dy10 1.0000000000 0.2052789412 0.3614641146 0.8129527660  Biso 1.0 Dy
Ru11 1.0000000000 0.1729030043 0.6021534570 0.0771692498  Biso 1.0 Ru
Ru12 1.0000000000 0.3978465430 0.8270969957 0.4228307502  Biso 1.0 Ru
Ru13 1.0000000000 0.8270969957 0.3978465430 0.9228307502  Biso 1.0 Ru
Ru14 1.0000000000 0.6021534570 0.1729030043 0.5771692498  Biso 1.0 Ru
