# AFLOW.org Repositories
# Er1   [HEX,HEX,hP2] (STD_PRIM doi:10.101
data_Er1
_pd_phase_name Er1
_cell_length_a  3.5791088660
_cell_length_b  3.5791088660
_cell_length_c  5.5566380202
_cell_angle_alpha  90.0000000000
_cell_angle_beta  90.0000000000
_cell_angle_gamma  120.0000000000
_symmetry_space_group_name_H-M  'P1'
_symmetry_Int_Tables_Number  1
loop_
_symmetry_equiv_pos_site_id
_symmetry_equiv_pos_as_xyz
  1  x,y,z
loop_
 _atom_site_label
 _atom_site_occupancy
 _atom_site_fract_x
 _atom_site_fract_y
 _atom_site_fract_z
 _atom_site_thermal_displace_type
 _atom_site_B_iso_or_equiv
 _atom_site_type_symbol
Er1 1.0000000000 0.3333730046 0.6666865023 0.2500000000  Biso 1.0 Er
Er2 1.0000000000 0.6666269954 0.3333134977 0.7500000000  Biso 1.0 Er
