# AFLOW.org Repositories
# Er1Ga1Ir1   [ORC,ORC,oP12] (STD_PRIM doi
data_Er1Ga1Ir1
_pd_phase_name Er1Ga1Ir1
_cell_length_a  4.2846809983
_cell_length_b  6.7522001474
_cell_length_c  7.7283715981
_cell_angle_alpha  90.0000000000
_cell_angle_beta  90.0000000000
_cell_angle_gamma  90.0000000000
_symmetry_space_group_name_H-M  'P1'
_symmetry_Int_Tables_Number  1
loop_
_symmetry_equiv_pos_site_id
_symmetry_equiv_pos_as_xyz
  1  x,y,z
loop_
 _atom_site_label
 _atom_site_occupancy
 _atom_site_fract_x
 _atom_site_fract_y
 _atom_site_fract_z
 _atom_site_thermal_displace_type
 _atom_site_B_iso_or_equiv
 _atom_site_type_symbol
Er1 1.0000000000 0.2500000000 0.9777733793 0.3110518759  Biso 1.0 Er
Er2 1.0000000000 0.7500000000 0.5222266207 0.8110518759  Biso 1.0 Er
Er3 1.0000000000 0.7500000000 0.0222266207 0.6889481241  Biso 1.0 Er
Er4 1.0000000000 0.2500000000 0.4777733793 0.1889481241  Biso 1.0 Er
Ga5 1.0000000000 0.2500000000 0.3411052149 0.5720432743  Biso 1.0 Ga
Ga6 1.0000000000 0.7500000000 0.1588947851 0.0720432743  Biso 1.0 Ga
Ga7 1.0000000000 0.7500000000 0.6588947851 0.4279567257  Biso 1.0 Ga
Ga8 1.0000000000 0.2500000000 0.8411052149 0.9279567257  Biso 1.0 Ga
Ir9 1.0000000000 0.2500000000 0.2309062235 0.8942996891  Biso 1.0 Ir
Ir10 1.0000000000 0.7500000000 0.2690937765 0.3942996891  Biso 1.0 Ir
Ir11 1.0000000000 0.7500000000 0.7690937765 0.1057003109  Biso 1.0 Ir
Ir12 1.0000000000 0.2500000000 0.7309062235 0.6057003109  Biso 1.0 Ir
