# AFLOW.org Repositories
# Er1Pt1   [ORC,ORC,oP8] (STD_PRIM doi:10.
data_Er1Pt1
_pd_phase_name Er1Pt1
_cell_length_a  4.4701266273
_cell_length_b  5.5023815545
_cell_length_c  6.9298719367
_cell_angle_alpha  90.0000000000
_cell_angle_beta  90.0000000000
_cell_angle_gamma  90.0000000000
_symmetry_space_group_name_H-M  'P1'
_symmetry_Int_Tables_Number  1
loop_
_symmetry_equiv_pos_site_id
_symmetry_equiv_pos_as_xyz
  1  x,y,z
loop_
 _atom_site_label
 _atom_site_occupancy
 _atom_site_fract_x
 _atom_site_fract_y
 _atom_site_fract_z
 _atom_site_thermal_displace_type
 _atom_site_B_iso_or_equiv
 _atom_site_type_symbol
Er1 1.0000000000 0.7500000000 0.8570292331 0.1829525921  Biso 1.0 Er
Er2 1.0000000000 0.2500000000 0.3570292331 0.3170474079  Biso 1.0 Er
Er3 1.0000000000 0.2500000000 0.1429707669 0.8170474079  Biso 1.0 Er
Er4 1.0000000000 0.7500000000 0.6429707669 0.6829525921  Biso 1.0 Er
Pt5 1.0000000000 0.7500000000 0.3425526117 0.0454976560  Biso 1.0 Pt
Pt6 1.0000000000 0.2500000000 0.8425526117 0.4545023440  Biso 1.0 Pt
Pt7 1.0000000000 0.2500000000 0.6574473883 0.9545023440  Biso 1.0 Pt
Pt8 1.0000000000 0.7500000000 0.1574473883 0.5454976560  Biso 1.0 Pt
