# AFLOW.org Repositories
# Er1Sn2   [ORCC,ORCC,oS12] (STD_PRIM doi:
data_Er1Sn2
_pd_phase_name Er1Sn2
_cell_length_a  8.5312270435
_cell_length_b  8.5312270435
_cell_length_c  4.3972865680
_cell_angle_alpha  90.0000000000
_cell_angle_beta  90.0000000000
_cell_angle_gamma  149.8975145385
_symmetry_space_group_name_H-M  'P1'
_symmetry_Int_Tables_Number  1
loop_
_symmetry_equiv_pos_site_id
_symmetry_equiv_pos_as_xyz
  1  x,y,z
loop_
 _atom_site_label
 _atom_site_occupancy
 _atom_site_fract_x
 _atom_site_fract_y
 _atom_site_fract_z
 _atom_site_thermal_displace_type
 _atom_site_B_iso_or_equiv
 _atom_site_type_symbol
Er1 1.0000000000 0.0988952675 0.9011047325 0.7500000000  Biso 1.0 Er
Er2 1.0000000000 0.9011047325 0.0988952675 0.2500000000  Biso 1.0 Er
Sn3 1.0000000000 0.4354612526 0.5645387474 0.7500000000  Biso 1.0 Sn
Sn4 1.0000000000 0.5645387474 0.4354612526 0.2500000000  Biso 1.0 Sn
Sn5 1.0000000000 0.7494941564 0.2505058436 0.7500000000  Biso 1.0 Sn
Sn6 1.0000000000 0.2505058436 0.7494941564 0.2500000000  Biso 1.0 Sn
