# AFLOW.org Repositories
# Er4Fe1Ga12   [BCC,BCC,cI34] (STD_PRIM do
data_Er4Fe1Ga12
_pd_phase_name Er4Fe1Ga12
_cell_length_a  7.4363501057
_cell_length_b  7.4363501057
_cell_length_c  7.4363501057
_cell_angle_alpha  109.4712206345
_cell_angle_beta  109.4712206345
_cell_angle_gamma  109.4712206345
_symmetry_space_group_name_H-M  'P1'
_symmetry_Int_Tables_Number  1
loop_
_symmetry_equiv_pos_site_id
_symmetry_equiv_pos_as_xyz
  1  x,y,z
loop_
 _atom_site_label
 _atom_site_occupancy
 _atom_site_fract_x
 _atom_site_fract_y
 _atom_site_fract_z
 _atom_site_thermal_displace_type
 _atom_site_B_iso_or_equiv
 _atom_site_type_symbol
Er1 1.0000000000 0.5000000000 0.0000000000 0.0000000000  Biso 1.0 Er
Er2 1.0000000000 0.0000000000 0.5000000000 0.0000000000  Biso 1.0 Er
Er3 1.0000000000 0.0000000000 0.0000000000 0.5000000000  Biso 1.0 Er
Er4 1.0000000000 0.5000000000 0.5000000000 0.5000000000  Biso 1.0 Er
Fe5 1.0000000000 0.0000000000 0.0000000000 0.0000000000  Biso 1.0 Fe
Ga6 1.0000000000 0.5000000000 0.7500000000 0.2500000000  Biso 1.0 Ga
Ga7 1.0000000000 0.5000000000 0.2500000000 0.7500000000  Biso 1.0 Ga
Ga8 1.0000000000 0.7500000000 0.5000000000 0.2500000000  Biso 1.0 Ga
Ga9 1.0000000000 0.2500000000 0.5000000000 0.7500000000  Biso 1.0 Ga
Ga10 1.0000000000 0.2500000000 0.7500000000 0.5000000000  Biso 1.0 Ga
Ga11 1.0000000000 0.7500000000 0.2500000000 0.5000000000  Biso 1.0 Ga
Ga12 1.0000000000 0.0000000000 0.2927798361 0.2927798361  Biso 1.0 Ga
Ga13 1.0000000000 0.0000000000 0.7072201639 0.7072201639  Biso 1.0 Ga
Ga14 1.0000000000 0.7072201639 0.0000000000 0.7072201639  Biso 1.0 Ga
Ga15 1.0000000000 0.2927798361 0.0000000000 0.2927798361  Biso 1.0 Ga
Ga16 1.0000000000 0.7072201639 0.7072201639 0.0000000000  Biso 1.0 Ga
Ga17 1.0000000000 0.2927798361 0.2927798361 0.0000000000  Biso 1.0 Ga
