# AFLOW.org Repositories
# Er4Ge6Os7   [BCC,BCC,cI34] (STD_PRIM doi
data_Er4Ge6Os7
_pd_phase_name Er4Ge6Os7
_cell_length_a  7.2253098202
_cell_length_b  7.2253098202
_cell_length_c  7.2253098202
_cell_angle_alpha  109.4712206345
_cell_angle_beta  109.4712206345
_cell_angle_gamma  109.4712206345
_symmetry_space_group_name_H-M  'P1'
_symmetry_Int_Tables_Number  1
loop_
_symmetry_equiv_pos_site_id
_symmetry_equiv_pos_as_xyz
  1  x,y,z
loop_
 _atom_site_label
 _atom_site_occupancy
 _atom_site_fract_x
 _atom_site_fract_y
 _atom_site_fract_z
 _atom_site_thermal_displace_type
 _atom_site_B_iso_or_equiv
 _atom_site_type_symbol
Er1 1.0000000000 0.0000000000 0.5000000000 0.0000000000  Biso 1.0 Er
Er2 1.0000000000 0.5000000000 0.0000000000 0.0000000000  Biso 1.0 Er
Er3 1.0000000000 0.5000000000 0.5000000000 0.5000000000  Biso 1.0 Er
Er4 1.0000000000 0.0000000000 0.0000000000 0.5000000000  Biso 1.0 Er
Ge5 1.0000000000 0.0000000000 0.6888639008 0.6888639008  Biso 1.0 Ge
Ge6 1.0000000000 0.0000000000 0.3111360992 0.3111360992  Biso 1.0 Ge
Ge7 1.0000000000 0.3111360992 0.0000000000 0.3111360992  Biso 1.0 Ge
Ge8 1.0000000000 0.6888639008 0.0000000000 0.6888639008  Biso 1.0 Ge
Ge9 1.0000000000 0.6888639008 0.6888639008 0.0000000000  Biso 1.0 Ge
Ge10 1.0000000000 0.3111360992 0.3111360992 0.0000000000  Biso 1.0 Ge
Os11 1.0000000000 0.5000000000 0.2500000000 0.7500000000  Biso 1.0 Os
Os12 1.0000000000 0.5000000000 0.7500000000 0.2500000000  Biso 1.0 Os
Os13 1.0000000000 0.2500000000 0.5000000000 0.7500000000  Biso 1.0 Os
Os14 1.0000000000 0.7500000000 0.5000000000 0.2500000000  Biso 1.0 Os
Os15 1.0000000000 0.2500000000 0.7500000000 0.5000000000  Biso 1.0 Os
Os16 1.0000000000 0.7500000000 0.2500000000 0.5000000000  Biso 1.0 Os
Os17 1.0000000000 0.0000000000 0.0000000000 0.0000000000  Biso 1.0 Os
