# AFLOW.org Repositories
# Er7Rh3   [HEX,HEX,hP20] (STD_PRIM doi:10
data_Er7Rh3
_pd_phase_name Er7Rh3
_cell_length_a  9.6878996951
_cell_length_b  9.6878996951
_cell_length_c  6.0750317949
_cell_angle_alpha  90.0000000000
_cell_angle_beta  90.0000000000
_cell_angle_gamma  120.0000000000
_symmetry_space_group_name_H-M  'P1'
_symmetry_Int_Tables_Number  1
loop_
_symmetry_equiv_pos_site_id
_symmetry_equiv_pos_as_xyz
  1  x,y,z
loop_
 _atom_site_label
 _atom_site_occupancy
 _atom_site_fract_x
 _atom_site_fract_y
 _atom_site_fract_z
 _atom_site_thermal_displace_type
 _atom_site_B_iso_or_equiv
 _atom_site_type_symbol
Er1 1.0000000000 0.6666741814 0.3333483628 0.7852723443  Biso 1.0 Er
Er2 1.0000000000 0.3333258186 0.6666516372 0.2852723443  Biso 1.0 Er
Er3 1.0000000000 0.8760655255 0.7521310510 0.9958938262  Biso 1.0 Er
Er4 1.0000000000 0.2478690778 0.1239345980 0.9958810897  Biso 1.0 Er
Er5 1.0000000000 0.8760655202 0.1239345980 0.9958810897  Biso 1.0 Er
Er6 1.0000000000 0.1239344745 0.2478689490 0.4958938262  Biso 1.0 Er
Er7 1.0000000000 0.7521309222 0.8760654020 0.4958810897  Biso 1.0 Er
Er8 1.0000000000 0.1239344798 0.8760654020 0.4958810897  Biso 1.0 Er
Er9 1.0000000000 0.4579802715 0.9159605429 0.7974349982  Biso 1.0 Er
Er10 1.0000000000 0.0840328646 0.5420193086 0.7974396076  Biso 1.0 Er
Er11 1.0000000000 0.4579864439 0.5420193086 0.7974396076  Biso 1.0 Er
Er12 1.0000000000 0.5420197285 0.0840394571 0.2974349982  Biso 1.0 Er
Er13 1.0000000000 0.9159671354 0.4579806914 0.2974396076  Biso 1.0 Er
Er14 1.0000000000 0.5420135561 0.4579806914 0.2974396076  Biso 1.0 Er
Rh15 1.0000000000 0.1895071640 0.3790143280 0.0589190412  Biso 1.0 Rh
Rh16 1.0000000000 0.6209802140 0.8104968320 0.0589191978  Biso 1.0 Rh
Rh17 1.0000000000 0.1895166180 0.8104968320 0.0589191978  Biso 1.0 Rh
Rh18 1.0000000000 0.8104928360 0.6209856720 0.5589190412  Biso 1.0 Rh
Rh19 1.0000000000 0.3790197860 0.1895031680 0.5589191978  Biso 1.0 Rh
Rh20 1.0000000000 0.8104833820 0.1895031680 0.5589191978  Biso 1.0 Rh
