# AFLOW.org Repositories
# F14Sr4Zn3   [HEX,HEX,hP21] (STD_PRIM doi
data_F14Sr4Zn3
_pd_phase_name F14Sr4Zn3
_cell_length_a  6.8584777715
_cell_length_b  6.8584777715
_cell_length_c  7.1294643078
_cell_angle_alpha  90.0000000000
_cell_angle_beta  90.0000000000
_cell_angle_gamma  120.0000000000
_symmetry_space_group_name_H-M  'P1'
_symmetry_Int_Tables_Number  1
loop_
_symmetry_equiv_pos_site_id
_symmetry_equiv_pos_as_xyz
  1  x,y,z
loop_
 _atom_site_label
 _atom_site_occupancy
 _atom_site_fract_x
 _atom_site_fract_y
 _atom_site_fract_z
 _atom_site_thermal_displace_type
 _atom_site_B_iso_or_equiv
 _atom_site_type_symbol
F1 1.0000000000 0.7336297468 0.7391204286 0.7685995865  Biso 1.0 F
F2 1.0000000000 0.2663702532 0.0054906818 0.7685995865  Biso 1.0 F
F3 1.0000000000 0.0000000000 0.2717769926 0.7685268616  Biso 1.0 F
F4 1.0000000000 0.0000000000 0.6106334203 0.0072361031  Biso 1.0 F
F5 1.0000000000 0.6051208781 0.0056122302 0.0072639819  Biso 1.0 F
F6 1.0000000000 0.3948791219 0.4004913520 0.0072639819  Biso 1.0 F
F7 1.0000000000 0.2403570996 0.0059675449 0.2688488482  Biso 1.0 F
F8 1.0000000000 0.7596429004 0.7656104452 0.2688488482  Biso 1.0 F
F9 1.0000000000 0.0000000000 0.6099498788 0.5289440534  Biso 1.0 F
F10 1.0000000000 0.6667406067 0.3389130877 0.2665093241  Biso 1.0 F
F11 1.0000000000 0.3332593933 0.6721724810 0.2665093241  Biso 1.0 F
F12 1.0000000000 0.3957906884 0.4013369712 0.5289824674  Biso 1.0 F
F13 1.0000000000 0.6042093116 0.0055462828 0.5289824674  Biso 1.0 F
F14 1.0000000000 0.0000000000 0.2455533553 0.2688978505  Biso 1.0 F
Sr15 1.0000000000 0.6666385045 0.3388232233 0.7687253254  Biso 1.0 Sr
Sr16 1.0000000000 0.3333614955 0.6721847188 0.7687253254  Biso 1.0 Sr
Sr17 1.0000000000 0.0000000000 0.0055120159 0.0088329059  Biso 1.0 Sr
Sr18 1.0000000000 0.0000000000 0.0054266353 0.5285988222  Biso 1.0 Sr
Zn19 1.0000000000 0.0000000000 0.5297888107 0.2680903834  Biso 1.0 Zn
Zn20 1.0000000000 0.4756151052 0.4811522745 0.2681069764  Biso 1.0 Zn
Zn21 1.0000000000 0.5243848948 0.0055371692 0.2681069764  Biso 1.0 Zn
