# AFLOW.org Repositories
# F2Xe1   [BCT,BCT2,tI6] (STD_PRIM doi:10.
data_F2Xe1
_pd_phase_name F2Xe1
_cell_length_a  4.8256655605
_cell_length_b  4.8256655605
_cell_length_c  4.8256655605
_cell_angle_alpha  124.2928619003
_cell_angle_beta  124.2928619003
_cell_angle_gamma  82.7126129153
_symmetry_space_group_name_H-M  'P1'
_symmetry_Int_Tables_Number  1
loop_
_symmetry_equiv_pos_site_id
_symmetry_equiv_pos_as_xyz
  1  x,y,z
loop_
 _atom_site_label
 _atom_site_occupancy
 _atom_site_fract_x
 _atom_site_fract_y
 _atom_site_fract_z
 _atom_site_thermal_displace_type
 _atom_site_B_iso_or_equiv
 _atom_site_type_symbol
F1 1.0000000000 0.7128660765 0.7128660765 0.0000000000  Biso 1.0 F
F2 1.0000000000 0.2871339235 0.2871339235 0.0000000000  Biso 1.0 F
Xe3 1.0000000000 0.0000000000 0.0000000000 0.0000000000  Biso 1.0 Xe
