# AFLOW.org Repositories
# F5U1   [BCT,BCT1,tI12] (STD_PRIM doi:10.
data_F5U1
_pd_phase_name F5U1
_cell_length_a  5.3214216904
_cell_length_b  5.3214216904
_cell_length_c  5.3214216904
_cell_angle_alpha  100.5346379698
_cell_angle_beta  100.5346379698
_cell_angle_gamma  129.3710631856
_symmetry_space_group_name_H-M  'P1'
_symmetry_Int_Tables_Number  1
loop_
_symmetry_equiv_pos_site_id
_symmetry_equiv_pos_as_xyz
  1  x,y,z
loop_
 _atom_site_label
 _atom_site_occupancy
 _atom_site_fract_x
 _atom_site_fract_y
 _atom_site_fract_z
 _atom_site_thermal_displace_type
 _atom_site_B_iso_or_equiv
 _atom_site_type_symbol
F1 1.0000000000 0.5000000000 0.5000000000 0.0000000000  Biso 1.0 F
F2 1.0000000000 0.8898513649 0.7179245616 0.6077759265  Biso 1.0 F
F3 1.0000000000 0.1101486351 0.2820754384 0.3922240735  Biso 1.0 F
F4 1.0000000000 0.7179245616 0.1101486351 0.8280731967  Biso 1.0 F
F5 1.0000000000 0.2820754384 0.8898513649 0.1719268033  Biso 1.0 F
U6 1.0000000000 0.0000000000 0.0000000000 0.0000000000  Biso 1.0 U
