# AFLOW.org Repositories
# Fe1Hf1Si1   [ORC,ORC,oP12] (STD_PRIM doi
data_Fe1Hf1Si1
_pd_phase_name Fe1Hf1Si1
_cell_length_a  3.6479435032
_cell_length_b  6.7324477939
_cell_length_c  7.7164978362
_cell_angle_alpha  90.0000000000
_cell_angle_beta  90.0000000000
_cell_angle_gamma  90.0000000000
_symmetry_space_group_name_H-M  'P1'
_symmetry_Int_Tables_Number  1
loop_
_symmetry_equiv_pos_site_id
_symmetry_equiv_pos_as_xyz
  1  x,y,z
loop_
 _atom_site_label
 _atom_site_occupancy
 _atom_site_fract_x
 _atom_site_fract_y
 _atom_site_fract_z
 _atom_site_thermal_displace_type
 _atom_site_B_iso_or_equiv
 _atom_site_type_symbol
Fe1 1.0000000000 0.2500000000 0.1371655436 0.9287556898  Biso 1.0 Fe
Fe2 1.0000000000 0.7500000000 0.3628344564 0.4287556898  Biso 1.0 Fe
Fe3 1.0000000000 0.7500000000 0.8628344564 0.0712443102  Biso 1.0 Fe
Fe4 1.0000000000 0.2500000000 0.6371655436 0.5712443102  Biso 1.0 Fe
Hf5 1.0000000000 0.2500000000 0.0271547760 0.3189395662  Biso 1.0 Hf
Hf6 1.0000000000 0.7500000000 0.4728452240 0.8189395662  Biso 1.0 Hf
Hf7 1.0000000000 0.7500000000 0.9728452240 0.6810604338  Biso 1.0 Hf
Hf8 1.0000000000 0.2500000000 0.5271547760 0.1810604338  Biso 1.0 Hf
Si9 1.0000000000 0.2500000000 0.2650178532 0.6182745083  Biso 1.0 Si
Si10 1.0000000000 0.7500000000 0.2349821468 0.1182745083  Biso 1.0 Si
Si11 1.0000000000 0.7500000000 0.7349821468 0.3817254917  Biso 1.0 Si
Si12 1.0000000000 0.2500000000 0.7650178532 0.8817254917  Biso 1.0 Si
