# AFLOW.org Repositories
# Fe1In1O3   [HEX,HEX,hP10] (STD_PRIM doi:
data_Fe1In1O3
_pd_phase_name Fe1In1O3
_cell_length_a  3.3866350466
_cell_length_b  3.3866350466
_cell_length_c  12.3126228376
_cell_angle_alpha  90.0000000000
_cell_angle_beta  90.0000000000
_cell_angle_gamma  120.0000000000
_symmetry_space_group_name_H-M  'P1'
_symmetry_Int_Tables_Number  1
loop_
_symmetry_equiv_pos_site_id
_symmetry_equiv_pos_as_xyz
  1  x,y,z
loop_
 _atom_site_label
 _atom_site_occupancy
 _atom_site_fract_x
 _atom_site_fract_y
 _atom_site_fract_z
 _atom_site_thermal_displace_type
 _atom_site_B_iso_or_equiv
 _atom_site_type_symbol
Fe1 1.0000000000 0.3333644418 0.6666822209 0.2500000000  Biso 1.0 Fe
Fe2 1.0000000000 0.6666355582 0.3333177791 0.7500000000  Biso 1.0 Fe
In3 1.0000000000 0.0000000000 0.0000000000 0.0000000000  Biso 1.0 In
In4 1.0000000000 0.0000000000 0.0000000000 0.5000000000  Biso 1.0 In
O5 1.0000000000 0.0000000000 0.0000000000 0.2500000000  Biso 1.0 O
O6 1.0000000000 0.0000000000 0.0000000000 0.7500000000  Biso 1.0 O
O7 1.0000000000 0.3333482739 0.6666741370 0.0850295208  Biso 1.0 O
O8 1.0000000000 0.6666517261 0.3333258630 0.5850295208  Biso 1.0 O
O9 1.0000000000 0.6666517261 0.3333258630 0.9149704792  Biso 1.0 O
O10 1.0000000000 0.3333482739 0.6666741370 0.4149704792  Biso 1.0 O
