# AFLOW.org Repositories
# Fe1Si1Ta1   [ORC,ORC,oP12] (STD_PRIM doi
data_Fe1Si1Ta1
_pd_phase_name Fe1Si1Ta1
_cell_length_a  3.5773361129
_cell_length_b  6.3678712583
_cell_length_c  7.7808092001
_cell_angle_alpha  90.0000000000
_cell_angle_beta  90.0000000000
_cell_angle_gamma  90.0000000000
_symmetry_space_group_name_H-M  'P1'
_symmetry_Int_Tables_Number  1
loop_
_symmetry_equiv_pos_site_id
_symmetry_equiv_pos_as_xyz
  1  x,y,z
loop_
 _atom_site_label
 _atom_site_occupancy
 _atom_site_fract_x
 _atom_site_fract_y
 _atom_site_fract_z
 _atom_site_thermal_displace_type
 _atom_site_B_iso_or_equiv
 _atom_site_type_symbol
Fe1 1.0000000000 0.2500000000 0.1320850556 0.9466160335  Biso 1.0 Fe
Fe2 1.0000000000 0.7500000000 0.3679149444 0.4466160335  Biso 1.0 Fe
Fe3 1.0000000000 0.7500000000 0.8679149444 0.0533839665  Biso 1.0 Fe
Fe4 1.0000000000 0.2500000000 0.6320850556 0.5533839665  Biso 1.0 Fe
Si5 1.0000000000 0.2500000000 0.2574640221 0.6442519889  Biso 1.0 Si
Si6 1.0000000000 0.7500000000 0.2425359779 0.1442519889  Biso 1.0 Si
Si7 1.0000000000 0.7500000000 0.7425359779 0.3557480111  Biso 1.0 Si
Si8 1.0000000000 0.2500000000 0.7574640221 0.8557480111  Biso 1.0 Si
Ta9 1.0000000000 0.2500000000 0.0468185382 0.3397781019  Biso 1.0 Ta
Ta10 1.0000000000 0.7500000000 0.4531814618 0.8397781019  Biso 1.0 Ta
Ta11 1.0000000000 0.7500000000 0.9531814618 0.6602218981  Biso 1.0 Ta
Ta12 1.0000000000 0.2500000000 0.5468185382 0.1602218981  Biso 1.0 Ta
