# AFLOW.org Repositories
# Fe2Ta1   [HEX,HEX,hP12] (STD_PRIM doi:10
data_Fe2Ta1
_pd_phase_name Fe2Ta1
_cell_length_a  5.0416315134
_cell_length_b  5.0416315134
_cell_length_c  8.1074592883
_cell_angle_alpha  90.0000000000
_cell_angle_beta  90.0000000000
_cell_angle_gamma  120.0000000000
_symmetry_space_group_name_H-M  'P1'
_symmetry_Int_Tables_Number  1
loop_
_symmetry_equiv_pos_site_id
_symmetry_equiv_pos_as_xyz
  1  x,y,z
loop_
 _atom_site_label
 _atom_site_occupancy
 _atom_site_fract_x
 _atom_site_fract_y
 _atom_site_fract_z
 _atom_site_thermal_displace_type
 _atom_site_B_iso_or_equiv
 _atom_site_type_symbol
Fe1 1.0000000000 0.0000000000 0.0000000000 0.0000000000  Biso 1.0 Fe
Fe2 1.0000000000 0.0000000000 0.0000000000 0.5000000000  Biso 1.0 Fe
Fe3 1.0000000000 0.8315680104 0.1684345724 0.2500000000  Biso 1.0 Fe
Fe4 1.0000000000 0.8315680104 0.6631334381 0.2500000000  Biso 1.0 Fe
Fe5 1.0000000000 0.3368758275 0.1684379138 0.2500000000  Biso 1.0 Fe
Fe6 1.0000000000 0.1684319896 0.8315654276 0.7500000000  Biso 1.0 Fe
Fe7 1.0000000000 0.1684319896 0.3368665619 0.7500000000  Biso 1.0 Fe
Fe8 1.0000000000 0.6631241725 0.8315620862 0.7500000000  Biso 1.0 Fe
Ta9 1.0000000000 0.3333346992 0.6666673496 0.0576655067  Biso 1.0 Ta
Ta10 1.0000000000 0.6666653008 0.3333326504 0.5576655067  Biso 1.0 Ta
Ta11 1.0000000000 0.6666653008 0.3333326504 0.9423344933  Biso 1.0 Ta
Ta12 1.0000000000 0.3333346992 0.6666673496 0.4423344933  Biso 1.0 Ta
