# AFLOW.org Repositories
# Fe6Ge6Hf1   [HEX,HEX,hP13] (STD_PRIM doi
data_Fe6Ge6Hf1
_pd_phase_name Fe6Ge6Hf1
_cell_length_a  5.1850144539
_cell_length_b  5.1850144539
_cell_length_c  8.4685675700
_cell_angle_alpha  90.0000000000
_cell_angle_beta  90.0000000000
_cell_angle_gamma  120.0000000000
_symmetry_space_group_name_H-M  'P1'
_symmetry_Int_Tables_Number  1
loop_
_symmetry_equiv_pos_site_id
_symmetry_equiv_pos_as_xyz
  1  x,y,z
loop_
 _atom_site_label
 _atom_site_occupancy
 _atom_site_fract_x
 _atom_site_fract_y
 _atom_site_fract_z
 _atom_site_thermal_displace_type
 _atom_site_B_iso_or_equiv
 _atom_site_type_symbol
Fe1 1.0000000000 0.5000000000 0.0000000000 0.2488420156  Biso 1.0 Fe
Fe2 1.0000000000 0.0000000000 0.5000000000 0.2488420156  Biso 1.0 Fe
Fe3 1.0000000000 0.5000000000 0.5000000000 0.2488507124  Biso 1.0 Fe
Fe4 1.0000000000 0.0000000000 0.5000000000 0.7511579844  Biso 1.0 Fe
Fe5 1.0000000000 0.5000000000 0.0000000000 0.7511579844  Biso 1.0 Fe
Fe6 1.0000000000 0.5000000000 0.5000000000 0.7511492876  Biso 1.0 Fe
Ge7 1.0000000000 0.3333236118 0.6666763882 0.0000000000  Biso 1.0 Ge
Ge8 1.0000000000 0.6666763882 0.3333236118 0.0000000000  Biso 1.0 Ge
Ge9 1.0000000000 0.3333059637 0.6666940363 0.5000000000  Biso 1.0 Ge
Ge10 1.0000000000 0.6666940363 0.3333059637 0.5000000000  Biso 1.0 Ge
Ge11 1.0000000000 0.0000000000 0.0000000000 0.3382173764  Biso 1.0 Ge
Ge12 1.0000000000 0.0000000000 0.0000000000 0.6617826236  Biso 1.0 Ge
Hf13 1.0000000000 0.0000000000 0.0000000000 0.0000000000  Biso 1.0 Hf
