# AFLOW.org Repositories
# Ga1Ir1Y1   [ORC,ORC,oP12] (STD_PRIM doi:
data_Ga1Ir1Y1
_pd_phase_name Ga1Ir1Y1
_cell_length_a  4.3229323403
_cell_length_b  6.8215786730
_cell_length_c  7.7407311657
_cell_angle_alpha  90.0000000000
_cell_angle_beta  90.0000000000
_cell_angle_gamma  90.0000000000
_symmetry_space_group_name_H-M  'P1'
_symmetry_Int_Tables_Number  1
loop_
_symmetry_equiv_pos_site_id
_symmetry_equiv_pos_as_xyz
  1  x,y,z
loop_
 _atom_site_label
 _atom_site_occupancy
 _atom_site_fract_x
 _atom_site_fract_y
 _atom_site_fract_z
 _atom_site_thermal_displace_type
 _atom_site_B_iso_or_equiv
 _atom_site_type_symbol
Ga1 1.0000000000 0.2500000000 0.3417131367 0.5715801858  Biso 1.0 Ga
Ga2 1.0000000000 0.7500000000 0.1582868633 0.0715801858  Biso 1.0 Ga
Ga3 1.0000000000 0.7500000000 0.6582868633 0.4284198142  Biso 1.0 Ga
Ga4 1.0000000000 0.2500000000 0.8417131367 0.9284198142  Biso 1.0 Ga
Ir5 1.0000000000 0.2500000000 0.2273586806 0.8942505916  Biso 1.0 Ir
Ir6 1.0000000000 0.7500000000 0.2726413194 0.3942505916  Biso 1.0 Ir
Ir7 1.0000000000 0.7500000000 0.7726413194 0.1057494084  Biso 1.0 Ir
Ir8 1.0000000000 0.2500000000 0.7273586806 0.6057494084  Biso 1.0 Ir
Y9 1.0000000000 0.2500000000 0.9772873104 0.3107470173  Biso 1.0 Y
Y10 1.0000000000 0.7500000000 0.5227126896 0.8107470173  Biso 1.0 Y
Y11 1.0000000000 0.7500000000 0.0227126896 0.6892529827  Biso 1.0 Y
Y12 1.0000000000 0.2500000000 0.4772873104 0.1892529827  Biso 1.0 Y
