# AFLOW.org Repositories
# Ga1La1Pd2   [ORC,ORC,oP16] (STD_PRIM doi
data_Ga1La1Pd2
_pd_phase_name Ga1La1Pd2
_cell_length_a  5.9278665281
_cell_length_b  7.1376879690
_cell_length_c  7.7162313733
_cell_angle_alpha  90.0000000000
_cell_angle_beta  90.0000000000
_cell_angle_gamma  90.0000000000
_symmetry_space_group_name_H-M  'P1'
_symmetry_Int_Tables_Number  1
loop_
_symmetry_equiv_pos_site_id
_symmetry_equiv_pos_as_xyz
  1  x,y,z
loop_
 _atom_site_label
 _atom_site_occupancy
 _atom_site_fract_x
 _atom_site_fract_y
 _atom_site_fract_z
 _atom_site_thermal_displace_type
 _atom_site_B_iso_or_equiv
 _atom_site_type_symbol
Ga1 1.0000000000 0.3475919364 0.7500000000 0.3794974874  Biso 1.0 Ga
Ga2 1.0000000000 0.8475919364 0.2500000000 0.1205025126  Biso 1.0 Ga
Ga3 1.0000000000 0.6524080636 0.2500000000 0.6205025126  Biso 1.0 Ga
Ga4 1.0000000000 0.1524080636 0.7500000000 0.8794974874  Biso 1.0 Ga
La5 1.0000000000 0.6518808544 0.7500000000 0.0336610056  Biso 1.0 La
La6 1.0000000000 0.1518808544 0.2500000000 0.4663389944  Biso 1.0 La
La7 1.0000000000 0.3481191456 0.2500000000 0.9663389944  Biso 1.0 La
La8 1.0000000000 0.8481191456 0.7500000000 0.5336610056  Biso 1.0 La
Pd9 1.0000000000 0.0881174627 0.9465967448 0.1769564299  Biso 1.0 Pd
Pd10 1.0000000000 0.5881174627 0.0534032552 0.3230435701  Biso 1.0 Pd
Pd11 1.0000000000 0.9118825373 0.4465967448 0.8230435701  Biso 1.0 Pd
Pd12 1.0000000000 0.4118825373 0.5534032552 0.6769564299  Biso 1.0 Pd
Pd13 1.0000000000 0.9118825373 0.0534032552 0.8230435701  Biso 1.0 Pd
Pd14 1.0000000000 0.4118825373 0.9465967448 0.6769564299  Biso 1.0 Pd
Pd15 1.0000000000 0.0881174627 0.5534032552 0.1769564299  Biso 1.0 Pd
Pd16 1.0000000000 0.5881174627 0.4465967448 0.3230435701  Biso 1.0 Pd
