# AFLOW.org Repositories
# Ga1O6Tb3   [ORCC,ORCC,oS40] (STD_PRIM do
data_Ga1O6Tb3
_pd_phase_name Ga1O6Tb3
_cell_length_a  7.1759094245
_cell_length_b  7.1759094245
_cell_length_c  5.4689018653
_cell_angle_alpha  90.0000000000
_cell_angle_beta  90.0000000000
_cell_angle_gamma  102.8215895621
_symmetry_space_group_name_H-M  'P1'
_symmetry_Int_Tables_Number  1
loop_
_symmetry_equiv_pos_site_id
_symmetry_equiv_pos_as_xyz
  1  x,y,z
loop_
 _atom_site_label
 _atom_site_occupancy
 _atom_site_fract_x
 _atom_site_fract_y
 _atom_site_fract_z
 _atom_site_thermal_displace_type
 _atom_site_B_iso_or_equiv
 _atom_site_type_symbol
Ga1 1.0000000000 0.8069040638 0.1930959362 0.0000000000  Biso 1.0 Ga
Ga2 1.0000000000 0.1930959362 0.8069040638 0.4995164902  Biso 1.0 Ga
O3 1.0000000000 0.5790356269 0.1061473198 0.8225638165  Biso 1.0 O
O4 1.0000000000 0.4209643731 0.8938526802 0.3225638165  Biso 1.0 O
O5 1.0000000000 0.1061473198 0.5790356269 0.3225638165  Biso 1.0 O
O6 1.0000000000 0.8938526802 0.4209643731 0.8225638165  Biso 1.0 O
O7 1.0000000000 0.6442621072 0.6759882230 0.8028554357  Biso 1.0 O
O8 1.0000000000 0.3557378928 0.3240117770 0.3028554357  Biso 1.0 O
O9 1.0000000000 0.6759882230 0.6442621072 0.3028554357  Biso 1.0 O
O10 1.0000000000 0.3240117770 0.3557378928 0.8028554357  Biso 1.0 O
O11 1.0000000000 0.9608513673 0.0391486327 0.8608475215  Biso 1.0 O
O12 1.0000000000 0.0391486327 0.9608513673 0.3608475215  Biso 1.0 O
O13 1.0000000000 0.7843036975 0.2156963025 0.3354498760  Biso 1.0 O
O14 1.0000000000 0.2156963025 0.7843036975 0.8354498760  Biso 1.0 O
Tb15 1.0000000000 0.7011775177 0.9121677371 0.5305597294  Biso 1.0 Tb
Tb16 1.0000000000 0.2988224823 0.0878322629 0.0305597294  Biso 1.0 Tb
Tb17 1.0000000000 0.9121677371 0.7011775177 0.0305597294  Biso 1.0 Tb
Tb18 1.0000000000 0.0878322629 0.2988224823 0.5305597294  Biso 1.0 Tb
Tb19 1.0000000000 0.6021539658 0.3978460342 0.5776881492  Biso 1.0 Tb
Tb20 1.0000000000 0.3978460342 0.6021539658 0.0776881492  Biso 1.0 Tb
