# AFLOW.org Repositories
# Ga1Rh1Y1   [ORC,ORC,oP12] (STD_PRIM doi:
data_Ga1Rh1Y1
_pd_phase_name Ga1Rh1Y1
_cell_length_a  4.3312533801
_cell_length_b  6.8049953335
_cell_length_c  7.7540349666
_cell_angle_alpha  90.0000000000
_cell_angle_beta  90.0000000000
_cell_angle_gamma  90.0000000000
_symmetry_space_group_name_H-M  'P1'
_symmetry_Int_Tables_Number  1
loop_
_symmetry_equiv_pos_site_id
_symmetry_equiv_pos_as_xyz
  1  x,y,z
loop_
 _atom_site_label
 _atom_site_occupancy
 _atom_site_fract_x
 _atom_site_fract_y
 _atom_site_fract_z
 _atom_site_thermal_displace_type
 _atom_site_B_iso_or_equiv
 _atom_site_type_symbol
Ga1 1.0000000000 0.2500000000 0.3427869664 0.5715304157  Biso 1.0 Ga
Ga2 1.0000000000 0.7500000000 0.1572130336 0.0715304157  Biso 1.0 Ga
Ga3 1.0000000000 0.7500000000 0.6572130336 0.4284695843  Biso 1.0 Ga
Ga4 1.0000000000 0.2500000000 0.8427869664 0.9284695843  Biso 1.0 Ga
Rh5 1.0000000000 0.2500000000 0.2287678280 0.8945612050  Biso 1.0 Rh
Rh6 1.0000000000 0.7500000000 0.2712321720 0.3945612050  Biso 1.0 Rh
Rh7 1.0000000000 0.7500000000 0.7712321720 0.1054387950  Biso 1.0 Rh
Rh8 1.0000000000 0.2500000000 0.7287678280 0.6054387950  Biso 1.0 Rh
Y9 1.0000000000 0.2500000000 0.9737953625 0.3106399068  Biso 1.0 Y
Y10 1.0000000000 0.7500000000 0.5262046375 0.8106399068  Biso 1.0 Y
Y11 1.0000000000 0.7500000000 0.0262046375 0.6893600932  Biso 1.0 Y
Y12 1.0000000000 0.2500000000 0.4737953625 0.1893600932  Biso 1.0 Y
