# AFLOW.org Repositories
# Ga2O4Zn1   [FCC,FCC,cF56] (STD_PRIM doi:
data_Ga2O4Zn1
_pd_phase_name Ga2O4Zn1
_cell_length_a  5.9097046015
_cell_length_b  5.9097046015
_cell_length_c  5.9097046015
_cell_angle_alpha  60.0000000000
_cell_angle_beta  60.0000000000
_cell_angle_gamma  60.0000000000
_symmetry_space_group_name_H-M  'P1'
_symmetry_Int_Tables_Number  1
loop_
_symmetry_equiv_pos_site_id
_symmetry_equiv_pos_as_xyz
  1  x,y,z
loop_
 _atom_site_label
 _atom_site_occupancy
 _atom_site_fract_x
 _atom_site_fract_y
 _atom_site_fract_z
 _atom_site_thermal_displace_type
 _atom_site_B_iso_or_equiv
 _atom_site_type_symbol
Ga1 1.0000000000 0.5000000000 0.5000000000 0.5000000000  Biso 1.0 Ga
Ga2 1.0000000000 0.0000000000 0.5000000000 0.0000000000  Biso 1.0 Ga
Ga3 1.0000000000 0.5000000000 0.0000000000 0.0000000000  Biso 1.0 Ga
Ga4 1.0000000000 0.5000000000 0.5000000000 0.0000000000  Biso 1.0 Ga
O5 1.0000000000 0.2601002681 0.2601002681 0.2196991958  Biso 1.0 O
O6 1.0000000000 0.7196991958 0.2601002681 0.7601002681  Biso 1.0 O
O7 1.0000000000 0.2601002681 0.7196991958 0.7601002681  Biso 1.0 O
O8 1.0000000000 0.2601002681 0.2601002681 0.7601002681  Biso 1.0 O
O9 1.0000000000 0.2803008042 0.7398997319 0.2398997319  Biso 1.0 O
O10 1.0000000000 0.7398997319 0.7398997319 0.7803008042  Biso 1.0 O
O11 1.0000000000 0.7398997319 0.2803008042 0.2398997319  Biso 1.0 O
O12 1.0000000000 0.7398997319 0.7398997319 0.2398997319  Biso 1.0 O
Zn13 1.0000000000 0.1250000000 0.1250000000 0.6250000000  Biso 1.0 Zn
Zn14 1.0000000000 0.8750000000 0.8750000000 0.3750000000  Biso 1.0 Zn
