# AFLOW.org Repositories
# Ga2Pb1Se4   [ORCC,ORCC,oS28] (STD_PRIM d
data_Ga2Pb1Se4
_pd_phase_name Ga2Pb1Se4
_cell_length_a  6.3135662050
_cell_length_b  6.3135662050
_cell_length_c  11.0327692938
_cell_angle_alpha  90.0000000000
_cell_angle_beta  90.0000000000
_cell_angle_gamma  119.8625940687
_symmetry_space_group_name_H-M  'P1'
_symmetry_Int_Tables_Number  1
loop_
_symmetry_equiv_pos_site_id
_symmetry_equiv_pos_as_xyz
  1  x,y,z
loop_
 _atom_site_label
 _atom_site_occupancy
 _atom_site_fract_x
 _atom_site_fract_y
 _atom_site_fract_z
 _atom_site_thermal_displace_type
 _atom_site_B_iso_or_equiv
 _atom_site_type_symbol
Ga1 1.0000000000 0.7624904661 0.2399091946 0.0000000000  Biso 1.0 Ga
Ga2 1.0000000000 0.2375095339 0.7600908054 0.0000000000  Biso 1.0 Ga
Ga3 1.0000000000 0.7600908054 0.2375095339 0.5000000000  Biso 1.0 Ga
Ga4 1.0000000000 0.2399091946 0.7624904661 0.5000000000  Biso 1.0 Ga
Pb5 1.0000000000 0.5000000000 0.5000000000 0.7500000000  Biso 1.0 Pb
Pb6 1.0000000000 0.5000000000 0.5000000000 0.2500000000  Biso 1.0 Pb
Se7 1.0000000000 0.3474157078 0.1883230299 0.0000000000  Biso 1.0 Se
Se8 1.0000000000 0.6525842922 0.8116769701 0.0000000000  Biso 1.0 Se
Se9 1.0000000000 0.8116769701 0.6525842922 0.5000000000  Biso 1.0 Se
Se10 1.0000000000 0.1883230299 0.3474157078 0.5000000000  Biso 1.0 Se
Se11 1.0000000000 0.5000000000 0.0000000000 0.6700044960  Biso 1.0 Se
Se12 1.0000000000 0.0000000000 0.5000000000 0.8299955040  Biso 1.0 Se
Se13 1.0000000000 0.5000000000 0.0000000000 0.3299955040  Biso 1.0 Se
Se14 1.0000000000 0.0000000000 0.5000000000 0.1700044960  Biso 1.0 Se
