# AFLOW.org Repositories
# Ga3Hf5   [HEX,HEX,hP16] (STD_PRIM doi:10
data_Ga3Hf5
_pd_phase_name Ga3Hf5
_cell_length_a  8.0100747225
_cell_length_b  8.0100747225
_cell_length_c  5.6791621288
_cell_angle_alpha  90.0000000000
_cell_angle_beta  90.0000000000
_cell_angle_gamma  120.0000000000
_symmetry_space_group_name_H-M  'P1'
_symmetry_Int_Tables_Number  1
loop_
_symmetry_equiv_pos_site_id
_symmetry_equiv_pos_as_xyz
  1  x,y,z
loop_
 _atom_site_label
 _atom_site_occupancy
 _atom_site_fract_x
 _atom_site_fract_y
 _atom_site_fract_z
 _atom_site_thermal_displace_type
 _atom_site_B_iso_or_equiv
 _atom_site_type_symbol
Ga1 1.0000000000 0.0000000000 0.3930199232 0.2500000000  Biso 1.0 Ga
Ga2 1.0000000000 0.6069800768 0.6069800768 0.2500000000  Biso 1.0 Ga
Ga3 1.0000000000 0.3930250942 0.0000000000 0.2500000000  Biso 1.0 Ga
Ga4 1.0000000000 0.0000000000 0.6069800768 0.7500000000  Biso 1.0 Ga
Ga5 1.0000000000 0.3930199232 0.3930199232 0.7500000000  Biso 1.0 Ga
Ga6 1.0000000000 0.6069749058 0.0000000000 0.7500000000  Biso 1.0 Ga
Hf7 1.0000000000 0.6666713035 0.3333426069 0.0000000000  Biso 1.0 Hf
Hf8 1.0000000000 0.3333286965 0.6666573931 0.5000000000  Biso 1.0 Hf
Hf9 1.0000000000 0.3333286965 0.6666573931 0.0000000000  Biso 1.0 Hf
Hf10 1.0000000000 0.6666713035 0.3333426069 0.5000000000  Biso 1.0 Hf
Hf11 1.0000000000 0.0000000000 0.7589849953 0.2500000000  Biso 1.0 Hf
Hf12 1.0000000000 0.2410150047 0.2410150047 0.2500000000  Biso 1.0 Hf
Hf13 1.0000000000 0.7589767544 0.0000000000 0.2500000000  Biso 1.0 Hf
Hf14 1.0000000000 0.0000000000 0.2410150047 0.7500000000  Biso 1.0 Hf
Hf15 1.0000000000 0.7589849953 0.7589849953 0.7500000000  Biso 1.0 Hf
Hf16 1.0000000000 0.2410232456 0.0000000000 0.7500000000  Biso 1.0 Hf
