# AFLOW.org Repositories
# Ga3Ni2   [HEX,HEX,hP5] (STD_PRIM doi:10.
data_Ga3Ni2
_pd_phase_name Ga3Ni2
_cell_length_a  4.0386690430
_cell_length_b  4.0386690430
_cell_length_c  4.8673652905
_cell_angle_alpha  90.0000000000
_cell_angle_beta  90.0000000000
_cell_angle_gamma  120.0000000000
_symmetry_space_group_name_H-M  'P1'
_symmetry_Int_Tables_Number  1
loop_
_symmetry_equiv_pos_site_id
_symmetry_equiv_pos_as_xyz
  1  x,y,z
loop_
 _atom_site_label
 _atom_site_occupancy
 _atom_site_fract_x
 _atom_site_fract_y
 _atom_site_fract_z
 _atom_site_thermal_displace_type
 _atom_site_B_iso_or_equiv
 _atom_site_type_symbol
Ga1 1.0000000000 0.0000000000 0.0000000000 0.0000000000  Biso 1.0 Ga
Ga2 1.0000000000 0.3333316096 0.6666649954 0.6413228268  Biso 1.0 Ga
Ga3 1.0000000000 0.6666683904 0.3333350046 0.3586771732  Biso 1.0 Ga
Ni4 1.0000000000 0.3333430657 0.6666718496 0.1425628689  Biso 1.0 Ni
Ni5 1.0000000000 0.6666569343 0.3333281504 0.8574371311  Biso 1.0 Ni
