# AFLOW.org Repositories
# Ga6Mn1Tb2   [FCC,FCC,cF36] (STD_PRIM doi
data_Ga6Mn1Tb2
_pd_phase_name Ga6Mn1Tb2
_cell_length_a  6.2702876263
_cell_length_b  6.2702876263
_cell_length_c  6.2702876263
_cell_angle_alpha  60.0000000000
_cell_angle_beta  60.0000000000
_cell_angle_gamma  60.0000000000
_symmetry_space_group_name_H-M  'P1'
_symmetry_Int_Tables_Number  1
loop_
_symmetry_equiv_pos_site_id
_symmetry_equiv_pos_as_xyz
  1  x,y,z
loop_
 _atom_site_label
 _atom_site_occupancy
 _atom_site_fract_x
 _atom_site_fract_y
 _atom_site_fract_z
 _atom_site_thermal_displace_type
 _atom_site_B_iso_or_equiv
 _atom_site_type_symbol
Ga1 1.0000000000 0.7847743969 0.2152256031 0.7847743969  Biso 1.0 Ga
Ga2 1.0000000000 0.2152256031 0.7847743969 0.2152256031  Biso 1.0 Ga
Ga3 1.0000000000 0.2152256031 0.2152256031 0.7847743969  Biso 1.0 Ga
Ga4 1.0000000000 0.7847743969 0.7847743969 0.2152256031  Biso 1.0 Ga
Ga5 1.0000000000 0.2152256031 0.7847743969 0.7847743969  Biso 1.0 Ga
Ga6 1.0000000000 0.7847743969 0.2152256031 0.2152256031  Biso 1.0 Ga
Mn7 1.0000000000 0.5000000000 0.5000000000 0.5000000000  Biso 1.0 Mn
Tb8 1.0000000000 0.2500000000 0.2500000000 0.2500000000  Biso 1.0 Tb
Tb9 1.0000000000 0.7500000000 0.7500000000 0.7500000000  Biso 1.0 Tb
