# AFLOW.org Repositories
# Ge1Li1Y1   [HEX,HEX,hP9] (STD_PRIM doi:1
data_Ge1Li1Y1
_pd_phase_name Ge1Li1Y1
_cell_length_a  7.0766256634
_cell_length_b  7.0766256634
_cell_length_c  4.2598649941
_cell_angle_alpha  90.0000000000
_cell_angle_beta  90.0000000000
_cell_angle_gamma  120.0000000000
_symmetry_space_group_name_H-M  'P1'
_symmetry_Int_Tables_Number  1
loop_
_symmetry_equiv_pos_site_id
_symmetry_equiv_pos_as_xyz
  1  x,y,z
loop_
 _atom_site_label
 _atom_site_occupancy
 _atom_site_fract_x
 _atom_site_fract_y
 _atom_site_fract_z
 _atom_site_thermal_displace_type
 _atom_site_B_iso_or_equiv
 _atom_site_type_symbol
Ge1 1.0000000000 0.0000000000 0.0000000000 0.0000000000  Biso 1.0 Ge
Ge2 1.0000000000 0.3333336600 0.6666751081 0.5000000000  Biso 1.0 Ge
Ge3 1.0000000000 0.6666663400 0.3333414482 0.5000000000  Biso 1.0 Ge
Li4 1.0000000000 0.7699322137 0.7699322137 0.5000000000  Biso 1.0 Li
Li5 1.0000000000 0.2300564704 0.0000000000 0.5000000000  Biso 1.0 Li
Li6 1.0000000000 0.0000000000 0.2300713585 0.5000000000  Biso 1.0 Li
Y7 1.0000000000 0.4259695570 0.4259695570 0.0000000000  Biso 1.0 Y
Y8 1.0000000000 0.5740139135 0.0000000000 0.0000000000  Biso 1.0 Y
Y9 1.0000000000 0.0000000000 0.5740397795 0.0000000000  Biso 1.0 Y
