# AFLOW.org Repositories
# Ge1Ni2   [HEX,HEX,hP6] (STD_PRIM doi:10.
data_Ge1Ni2
_pd_phase_name Ge1Ni2
_cell_length_a  3.9890670468
_cell_length_b  3.9890670468
_cell_length_c  5.0298151362
_cell_angle_alpha  90.0000000000
_cell_angle_beta  90.0000000000
_cell_angle_gamma  120.0000000000
_symmetry_space_group_name_H-M  'P1'
_symmetry_Int_Tables_Number  1
loop_
_symmetry_equiv_pos_site_id
_symmetry_equiv_pos_as_xyz
  1  x,y,z
loop_
 _atom_site_label
 _atom_site_occupancy
 _atom_site_fract_x
 _atom_site_fract_y
 _atom_site_fract_z
 _atom_site_thermal_displace_type
 _atom_site_B_iso_or_equiv
 _atom_site_type_symbol
Ge1 1.0000000000 0.3333352119 0.6666647881 0.2500000000  Biso 1.0 Ge
Ge2 1.0000000000 0.6666647881 0.3333352119 0.7500000000  Biso 1.0 Ge
Ni3 1.0000000000 0.0000000000 0.0000000000 0.0000000000  Biso 1.0 Ni
Ni4 1.0000000000 0.0000000000 0.0000000000 0.5000000000  Biso 1.0 Ni
Ni5 1.0000000000 0.3333213595 0.6666786405 0.7500000000  Biso 1.0 Ni
Ni6 1.0000000000 0.6666786405 0.3333213595 0.2500000000  Biso 1.0 Ni
