# AFLOW.org Repositories
# Ge1Ni2   [ORC,ORC,oP12] (STD_PRIM doi:10
data_Ge1Ni2
_pd_phase_name Ge1Ni2
_cell_length_a  3.7940408035
_cell_length_b  5.1098790991
_cell_length_c  7.1849956566
_cell_angle_alpha  90.0000000000
_cell_angle_beta  90.0000000000
_cell_angle_gamma  90.0000000000
_symmetry_space_group_name_H-M  'P1'
_symmetry_Int_Tables_Number  1
loop_
_symmetry_equiv_pos_site_id
_symmetry_equiv_pos_as_xyz
  1  x,y,z
loop_
 _atom_site_label
 _atom_site_occupancy
 _atom_site_fract_x
 _atom_site_fract_y
 _atom_site_fract_z
 _atom_site_thermal_displace_type
 _atom_site_B_iso_or_equiv
 _atom_site_type_symbol
Ge1 1.0000000000 0.2500000000 0.2872191659 0.6123426190  Biso 1.0 Ge
Ge2 1.0000000000 0.7500000000 0.2127808341 0.1123426190  Biso 1.0 Ge
Ge3 1.0000000000 0.7500000000 0.7127808341 0.3876573810  Biso 1.0 Ge
Ge4 1.0000000000 0.2500000000 0.7872191659 0.8876573810  Biso 1.0 Ge
Ni5 1.0000000000 0.2500000000 0.3287730754 0.9385244666  Biso 1.0 Ni
Ni6 1.0000000000 0.7500000000 0.1712269246 0.4385244666  Biso 1.0 Ni
Ni7 1.0000000000 0.7500000000 0.6712269246 0.0614755334  Biso 1.0 Ni
Ni8 1.0000000000 0.2500000000 0.8287730754 0.5614755334  Biso 1.0 Ni
Ni9 1.0000000000 0.2500000000 0.9572558175 0.2069048375  Biso 1.0 Ni
Ni10 1.0000000000 0.7500000000 0.5427441825 0.7069048375  Biso 1.0 Ni
Ni11 1.0000000000 0.7500000000 0.0427441825 0.7930951625  Biso 1.0 Ni
Ni12 1.0000000000 0.2500000000 0.4572558175 0.2930951625  Biso 1.0 Ni
