# AFLOW.org Repositories
# Ge1O2   [CUB,CUB,cP12] (STD_PRIM doi:10.
data_Ge1O2
_pd_phase_name Ge1O2
_cell_length_a  4.7673131258
_cell_length_b  4.7673131258
_cell_length_c  4.7673131258
_cell_angle_alpha  90.0000000000
_cell_angle_beta  90.0000000000
_cell_angle_gamma  90.0000000000
_symmetry_space_group_name_H-M  'P1'
_symmetry_Int_Tables_Number  1
loop_
_symmetry_equiv_pos_site_id
_symmetry_equiv_pos_as_xyz
  1  x,y,z
loop_
 _atom_site_label
 _atom_site_occupancy
 _atom_site_fract_x
 _atom_site_fract_y
 _atom_site_fract_z
 _atom_site_thermal_displace_type
 _atom_site_B_iso_or_equiv
 _atom_site_type_symbol
Ge1 1.0000000000 0.0000000000 0.0000000000 0.0000000000  Biso 1.0 Ge
Ge2 1.0000000000 0.5000000000 0.0000000000 0.5000000000  Biso 1.0 Ge
Ge3 1.0000000000 0.0000000000 0.5000000000 0.5000000000  Biso 1.0 Ge
Ge4 1.0000000000 0.5000000000 0.5000000000 0.0000000000  Biso 1.0 Ge
O5 1.0000000000 0.6563118008 0.6563118008 0.3436881992  Biso 1.0 O
O6 1.0000000000 0.8436881992 0.3436881992 0.8436881992  Biso 1.0 O
O7 1.0000000000 0.3436881992 0.1563118008 0.1563118008  Biso 1.0 O
O8 1.0000000000 0.1563118008 0.8436881992 0.6563118008  Biso 1.0 O
O9 1.0000000000 0.3436881992 0.3436881992 0.6563118008  Biso 1.0 O
O10 1.0000000000 0.1563118008 0.6563118008 0.1563118008  Biso 1.0 O
O11 1.0000000000 0.6563118008 0.8436881992 0.8436881992  Biso 1.0 O
O12 1.0000000000 0.8436881992 0.1563118008 0.3436881992  Biso 1.0 O
