# AFLOW.org Repositories
# Ge1Pd1Zr1   [ORC,ORC,oP12] (STD_PRIM doi
data_Ge1Pd1Zr1
_pd_phase_name Ge1Pd1Zr1
_cell_length_a  3.9805914588
_cell_length_b  6.7387434446
_cell_length_c  7.8011054212
_cell_angle_alpha  90.0000000000
_cell_angle_beta  90.0000000000
_cell_angle_gamma  90.0000000000
_symmetry_space_group_name_H-M  'P1'
_symmetry_Int_Tables_Number  1
loop_
_symmetry_equiv_pos_site_id
_symmetry_equiv_pos_as_xyz
  1  x,y,z
loop_
 _atom_site_label
 _atom_site_occupancy
 _atom_site_fract_x
 _atom_site_fract_y
 _atom_site_fract_z
 _atom_site_thermal_displace_type
 _atom_site_B_iso_or_equiv
 _atom_site_type_symbol
Ge1 1.0000000000 0.2500000000 0.2515632071 0.6230314110  Biso 1.0 Ge
Ge2 1.0000000000 0.7500000000 0.2484367929 0.1230314110  Biso 1.0 Ge
Ge3 1.0000000000 0.7500000000 0.7484367929 0.3769685890  Biso 1.0 Ge
Ge4 1.0000000000 0.2500000000 0.7515632071 0.8769685890  Biso 1.0 Ge
Pd5 1.0000000000 0.2500000000 0.1416945095 0.9388532798  Biso 1.0 Pd
Pd6 1.0000000000 0.7500000000 0.3583054905 0.4388532798  Biso 1.0 Pd
Pd7 1.0000000000 0.7500000000 0.8583054905 0.0611467202  Biso 1.0 Pd
Pd8 1.0000000000 0.2500000000 0.6416945095 0.5611467202  Biso 1.0 Pd
Zr9 1.0000000000 0.2500000000 0.0309658163 0.3145311465  Biso 1.0 Zr
Zr10 1.0000000000 0.7500000000 0.4690341837 0.8145311465  Biso 1.0 Zr
Zr11 1.0000000000 0.7500000000 0.9690341837 0.6854688535  Biso 1.0 Zr
Zr12 1.0000000000 0.2500000000 0.5309658163 0.1854688535  Biso 1.0 Zr
