# AFLOW.org Repositories
# Ge1Pd2Y1   [ORC,ORC,oP16] (STD_PRIM doi:
data_Ge1Pd2Y1
_pd_phase_name Ge1Pd2Y1
_cell_length_a  5.6182519136
_cell_length_b  7.1308945231
_cell_length_c  7.4200402925
_cell_angle_alpha  90.0000000000
_cell_angle_beta  90.0000000000
_cell_angle_gamma  90.0000000000
_symmetry_space_group_name_H-M  'P1'
_symmetry_Int_Tables_Number  1
loop_
_symmetry_equiv_pos_site_id
_symmetry_equiv_pos_as_xyz
  1  x,y,z
loop_
 _atom_site_label
 _atom_site_occupancy
 _atom_site_fract_x
 _atom_site_fract_y
 _atom_site_fract_z
 _atom_site_thermal_displace_type
 _atom_site_B_iso_or_equiv
 _atom_site_type_symbol
Ge1 1.0000000000 0.3543456207 0.7500000000 0.3801305596  Biso 1.0 Ge
Ge2 1.0000000000 0.8543456207 0.2500000000 0.1198694404  Biso 1.0 Ge
Ge3 1.0000000000 0.6456543793 0.2500000000 0.6198694404  Biso 1.0 Ge
Ge4 1.0000000000 0.1456543793 0.7500000000 0.8801305596  Biso 1.0 Ge
Pd5 1.0000000000 0.0888757058 0.9489412324 0.1813884734  Biso 1.0 Pd
Pd6 1.0000000000 0.5888757058 0.0510587676 0.3186115266  Biso 1.0 Pd
Pd7 1.0000000000 0.9111242942 0.4489412324 0.8186115266  Biso 1.0 Pd
Pd8 1.0000000000 0.4111242942 0.5510587676 0.6813884734  Biso 1.0 Pd
Pd9 1.0000000000 0.9111242942 0.0510587676 0.8186115266  Biso 1.0 Pd
Pd10 1.0000000000 0.4111242942 0.9489412324 0.6813884734  Biso 1.0 Pd
Pd11 1.0000000000 0.0888757058 0.5510587676 0.1813884734  Biso 1.0 Pd
Pd12 1.0000000000 0.5888757058 0.4489412324 0.3186115266  Biso 1.0 Pd
Y13 1.0000000000 0.6468914891 0.7500000000 0.0285041336  Biso 1.0 Y
Y14 1.0000000000 0.1468914891 0.2500000000 0.4714958664  Biso 1.0 Y
Y15 1.0000000000 0.3531085109 0.2500000000 0.9714958664  Biso 1.0 Y
Y16 1.0000000000 0.8531085109 0.7500000000 0.5285041336  Biso 1.0 Y
