# AFLOW.org Repositories
# Ge1Pd1   [ORC,ORC,oP8] (STD_PRIM doi:10.
data_Ge1Pd1
_pd_phase_name Ge1Pd1
_cell_length_a  3.5210977127
_cell_length_b  5.8726918046
_cell_length_c  6.3825133317
_cell_angle_alpha  90.0000000000
_cell_angle_beta  90.0000000000
_cell_angle_gamma  90.0000000000
_symmetry_space_group_name_H-M  'P1'
_symmetry_Int_Tables_Number  1
loop_
_symmetry_equiv_pos_site_id
_symmetry_equiv_pos_as_xyz
  1  x,y,z
loop_
 _atom_site_label
 _atom_site_occupancy
 _atom_site_fract_x
 _atom_site_fract_y
 _atom_site_fract_z
 _atom_site_thermal_displace_type
 _atom_site_B_iso_or_equiv
 _atom_site_type_symbol
Ge1 1.0000000000 0.2500000000 0.1868883665 0.4245034038  Biso 1.0 Ge
Ge2 1.0000000000 0.7500000000 0.3131116335 0.9245034038  Biso 1.0 Ge
Ge3 1.0000000000 0.7500000000 0.8131116335 0.5754965962  Biso 1.0 Ge
Ge4 1.0000000000 0.2500000000 0.6868883665 0.0754965962  Biso 1.0 Ge
Pd5 1.0000000000 0.2500000000 0.0048773540 0.8092825469  Biso 1.0 Pd
Pd6 1.0000000000 0.7500000000 0.4951226460 0.3092825469  Biso 1.0 Pd
Pd7 1.0000000000 0.7500000000 0.9951226460 0.1907174531  Biso 1.0 Pd
Pd8 1.0000000000 0.2500000000 0.5048773540 0.6907174531  Biso 1.0 Pd
