# AFLOW.org Repositories
# Ge2La1Ni1   [ORCC,ORCC,oS16] (STD_PRIM d
data_Ge2La1Ni1
_pd_phase_name Ge2La1Ni1
_cell_length_a  8.7362189090
_cell_length_b  8.7362189090
_cell_length_c  4.2594075238
_cell_angle_alpha  90.0000000000
_cell_angle_beta  90.0000000000
_cell_angle_gamma  151.2649047642
_symmetry_space_group_name_H-M  'P1'
_symmetry_Int_Tables_Number  1
loop_
_symmetry_equiv_pos_site_id
_symmetry_equiv_pos_as_xyz
  1  x,y,z
loop_
 _atom_site_label
 _atom_site_occupancy
 _atom_site_fract_x
 _atom_site_fract_y
 _atom_site_fract_z
 _atom_site_thermal_displace_type
 _atom_site_B_iso_or_equiv
 _atom_site_type_symbol
Ge1 1.0000000000 0.4558817254 0.5441182746 0.7500000000  Biso 1.0 Ge
Ge2 1.0000000000 0.5441182746 0.4558817254 0.2500000000  Biso 1.0 Ge
Ge3 1.0000000000 0.7499482934 0.2500517066 0.7500000000  Biso 1.0 Ge
Ge4 1.0000000000 0.2500517066 0.7499482934 0.2500000000  Biso 1.0 Ge
La5 1.0000000000 0.1076167202 0.8923832798 0.7500000000  Biso 1.0 La
La6 1.0000000000 0.8923832798 0.1076167202 0.2500000000  Biso 1.0 La
Ni7 1.0000000000 0.3159209872 0.6840790128 0.7500000000  Biso 1.0 Ni
Ni8 1.0000000000 0.6840790128 0.3159209872 0.2500000000  Biso 1.0 Ni
