# AFLOW.org Repositories
# Ge3N4   [FCC,FCC,cF56] (STD_PRIM doi:10.
data_Ge3N4
_pd_phase_name Ge3N4
_cell_length_a  5.8825470089
_cell_length_b  5.8825470089
_cell_length_c  5.8825470089
_cell_angle_alpha  60.0000000000
_cell_angle_beta  60.0000000000
_cell_angle_gamma  60.0000000000
_symmetry_space_group_name_H-M  'P1'
_symmetry_Int_Tables_Number  1
loop_
_symmetry_equiv_pos_site_id
_symmetry_equiv_pos_as_xyz
  1  x,y,z
loop_
 _atom_site_label
 _atom_site_occupancy
 _atom_site_fract_x
 _atom_site_fract_y
 _atom_site_fract_z
 _atom_site_thermal_displace_type
 _atom_site_B_iso_or_equiv
 _atom_site_type_symbol
Ge1 1.0000000000 0.0000000000 0.0000000000 0.0000000000  Biso 1.0 Ge
Ge2 1.0000000000 0.2500000000 0.2500000000 0.2500000000  Biso 1.0 Ge
Ge3 1.0000000000 0.6250000000 0.6250000000 0.6250000000  Biso 1.0 Ge
Ge4 1.0000000000 0.1250000000 0.6250000000 0.6250000000  Biso 1.0 Ge
Ge5 1.0000000000 0.6250000000 0.6250000000 0.1250000000  Biso 1.0 Ge
Ge6 1.0000000000 0.6250000000 0.1250000000 0.6250000000  Biso 1.0 Ge
N7 1.0000000000 0.3832340084 0.3832340084 0.3832340084  Biso 1.0 N
N8 1.0000000000 0.8502979747 0.3832340084 0.3832340084  Biso 1.0 N
N9 1.0000000000 0.3832340084 0.3832340084 0.8502979747  Biso 1.0 N
N10 1.0000000000 0.3832340084 0.8502979747 0.3832340084  Biso 1.0 N
N11 1.0000000000 0.3997020253 0.8667659916 0.8667659916  Biso 1.0 N
N12 1.0000000000 0.8667659916 0.8667659916 0.8667659916  Biso 1.0 N
N13 1.0000000000 0.8667659916 0.8667659916 0.3997020253  Biso 1.0 N
N14 1.0000000000 0.8667659916 0.3997020253 0.8667659916  Biso 1.0 N
