# AFLOW.org Repositories
# Ge3N4   [HEX,HEX,hP14] (STD_PRIM doi:10.
data_Ge3N4
_pd_phase_name Ge3N4
_cell_length_a  8.1335653233
_cell_length_b  8.1335653233
_cell_length_c  3.1152122118
_cell_angle_alpha  90.0000000000
_cell_angle_beta  90.0000000000
_cell_angle_gamma  120.0000000000
_symmetry_space_group_name_H-M  'P1'
_symmetry_Int_Tables_Number  1
loop_
_symmetry_equiv_pos_site_id
_symmetry_equiv_pos_as_xyz
  1  x,y,z
loop_
 _atom_site_label
 _atom_site_occupancy
 _atom_site_fract_x
 _atom_site_fract_y
 _atom_site_fract_z
 _atom_site_thermal_displace_type
 _atom_site_B_iso_or_equiv
 _atom_site_type_symbol
Ge1 1.0000000000 0.5937588247 0.8287952841 0.2500000000  Biso 1.0 Ge
Ge2 1.0000000000 0.1712038603 0.7649592429 0.2500000000  Biso 1.0 Ge
Ge3 1.0000000000 0.2350397543 0.4062464170 0.2500000000  Biso 1.0 Ge
Ge4 1.0000000000 0.4062411753 0.1712047159 0.7500000000  Biso 1.0 Ge
Ge5 1.0000000000 0.8287961397 0.2350407571 0.7500000000  Biso 1.0 Ge
Ge6 1.0000000000 0.7649602457 0.5937535830 0.7500000000  Biso 1.0 Ge
N7 1.0000000000 0.6970457426 0.6692998139 0.2500000000  Biso 1.0 N
N8 1.0000000000 0.3306961724 0.0277423631 0.2500000000  Biso 1.0 N
N9 1.0000000000 0.9722562094 0.3029686643 0.2500000000  Biso 1.0 N
N10 1.0000000000 0.3029542574 0.3307001861 0.7500000000  Biso 1.0 N
N11 1.0000000000 0.6693038276 0.9722576369 0.7500000000  Biso 1.0 N
N12 1.0000000000 0.0277437906 0.6970313357 0.7500000000  Biso 1.0 N
N13 1.0000000000 0.3333360370 0.6666695912 0.2500000000  Biso 1.0 N
N14 1.0000000000 0.6666639630 0.3333304088 0.7500000000  Biso 1.0 N
