# AFLOW.org Repositories
# Ge3Ru2Tb3   [ORCC,ORCC,oS32] (STD_PRIM d
data_Ge3Ru2Tb3
_pd_phase_name Ge3Ru2Tb3
_cell_length_a  5.8495730554
_cell_length_b  5.8495730554
_cell_length_c  14.0199868961
_cell_angle_alpha  90.0000000000
_cell_angle_beta  90.0000000000
_cell_angle_gamma  137.1727679766
_symmetry_space_group_name_H-M  'P1'
_symmetry_Int_Tables_Number  1
loop_
_symmetry_equiv_pos_site_id
_symmetry_equiv_pos_as_xyz
  1  x,y,z
loop_
 _atom_site_label
 _atom_site_occupancy
 _atom_site_fract_x
 _atom_site_fract_y
 _atom_site_fract_z
 _atom_site_thermal_displace_type
 _atom_site_B_iso_or_equiv
 _atom_site_type_symbol
Ge1 1.0000000000 0.6171639127 0.3828360873 0.9593360229  Biso 1.0 Ge
Ge2 1.0000000000 0.3828360873 0.6171639127 0.4593360229  Biso 1.0 Ge
Ge3 1.0000000000 0.6171639127 0.3828360873 0.5406639771  Biso 1.0 Ge
Ge4 1.0000000000 0.3828360873 0.6171639127 0.0406639771  Biso 1.0 Ge
Ge5 1.0000000000 0.3340701482 0.6659298518 0.7500000000  Biso 1.0 Ge
Ge6 1.0000000000 0.6659298518 0.3340701482 0.2500000000  Biso 1.0 Ge
Ru7 1.0000000000 0.7861754940 0.2138245060 0.4182179288  Biso 1.0 Ru
Ru8 1.0000000000 0.2138245060 0.7861754940 0.9182179288  Biso 1.0 Ru
Ru9 1.0000000000 0.7861754940 0.2138245060 0.0817820712  Biso 1.0 Ru
Ru10 1.0000000000 0.2138245060 0.7861754940 0.5817820712  Biso 1.0 Ru
Tb11 1.0000000000 0.9214190296 0.0785809704 0.8868111009  Biso 1.0 Tb
Tb12 1.0000000000 0.0785809704 0.9214190296 0.3868111009  Biso 1.0 Tb
Tb13 1.0000000000 0.9214190296 0.0785809704 0.6131888991  Biso 1.0 Tb
Tb14 1.0000000000 0.0785809704 0.9214190296 0.1131888991  Biso 1.0 Tb
Tb15 1.0000000000 0.6449683730 0.3550316270 0.7500000000  Biso 1.0 Tb
Tb16 1.0000000000 0.3550316270 0.6449683730 0.2500000000  Biso 1.0 Tb
