# AFLOW.org Repositories
# Ge3Ta5   [BCT,BCT2,tI32] (STD_PRIM doi:1
data_Ge3Ta5
_pd_phase_name Ge3Ta5
_cell_length_a  7.7196022570
_cell_length_b  7.7196022570
_cell_length_c  7.7196022570
_cell_angle_alpha  128.4673205594
_cell_angle_beta  128.4673205594
_cell_angle_gamma  75.8692008449
_symmetry_space_group_name_H-M  'P1'
_symmetry_Int_Tables_Number  1
loop_
_symmetry_equiv_pos_site_id
_symmetry_equiv_pos_as_xyz
  1  x,y,z
loop_
 _atom_site_label
 _atom_site_occupancy
 _atom_site_fract_x
 _atom_site_fract_y
 _atom_site_fract_z
 _atom_site_thermal_displace_type
 _atom_site_B_iso_or_equiv
 _atom_site_type_symbol
Ge1 1.0000000000 0.7500000000 0.7500000000 0.0000000000  Biso 1.0 Ge
Ge2 1.0000000000 0.2500000000 0.2500000000 0.0000000000  Biso 1.0 Ge
Ge3 1.0000000000 0.3635273260 0.8635273260 0.2270546520  Biso 1.0 Ge
Ge4 1.0000000000 0.6364726740 0.1364726740 0.7729453480  Biso 1.0 Ge
Ge5 1.0000000000 0.1364726740 0.3635273260 0.5000000000  Biso 1.0 Ge
Ge6 1.0000000000 0.8635273260 0.6364726740 0.5000000000  Biso 1.0 Ge
Ta7 1.0000000000 0.0000000000 0.0000000000 0.0000000000  Biso 1.0 Ta
Ta8 1.0000000000 0.5000000000 0.5000000000 0.0000000000  Biso 1.0 Ta
Ta9 1.0000000000 0.0057827973 0.5057827973 0.8205980586  Biso 1.0 Ta
Ta10 1.0000000000 0.6851847387 0.1851847387 0.1794019414  Biso 1.0 Ta
Ta11 1.0000000000 0.1851847387 0.0057827973 0.5000000000  Biso 1.0 Ta
Ta12 1.0000000000 0.5057827973 0.6851847387 0.5000000000  Biso 1.0 Ta
Ta13 1.0000000000 0.4942172027 0.3148152613 0.5000000000  Biso 1.0 Ta
Ta14 1.0000000000 0.8148152613 0.9942172027 0.5000000000  Biso 1.0 Ta
Ta15 1.0000000000 0.3148152613 0.8148152613 0.8205980586  Biso 1.0 Ta
Ta16 1.0000000000 0.9942172027 0.4942172027 0.1794019414  Biso 1.0 Ta
