# AFLOW.org Repositories
# Ge3Y5   [HEX,HEX,hP16] (STD_PRIM doi:10.
data_Ge3Y5
_pd_phase_name Ge3Y5
_cell_length_a  8.5240011926
_cell_length_b  8.5240011926
_cell_length_c  6.4268584619
_cell_angle_alpha  90.0000000000
_cell_angle_beta  90.0000000000
_cell_angle_gamma  120.0000000000
_symmetry_space_group_name_H-M  'P1'
_symmetry_Int_Tables_Number  1
loop_
_symmetry_equiv_pos_site_id
_symmetry_equiv_pos_as_xyz
  1  x,y,z
loop_
 _atom_site_label
 _atom_site_occupancy
 _atom_site_fract_x
 _atom_site_fract_y
 _atom_site_fract_z
 _atom_site_thermal_displace_type
 _atom_site_B_iso_or_equiv
 _atom_site_type_symbol
Ge1 1.0000000000 0.0000000000 0.3932368449 0.2500000000  Biso 1.0 Ge
Ge2 1.0000000000 0.6067631551 0.6067631551 0.2500000000  Biso 1.0 Ge
Ge3 1.0000000000 0.3932440115 0.0000000000 0.2500000000  Biso 1.0 Ge
Ge4 1.0000000000 0.0000000000 0.6067631551 0.7500000000  Biso 1.0 Ge
Ge5 1.0000000000 0.3932368449 0.3932368449 0.7500000000  Biso 1.0 Ge
Ge6 1.0000000000 0.6067559885 0.0000000000 0.7500000000  Biso 1.0 Ge
Y7 1.0000000000 0.6666717988 0.3333435977 0.0000000000  Biso 1.0 Y
Y8 1.0000000000 0.3333282012 0.6666564023 0.5000000000  Biso 1.0 Y
Y9 1.0000000000 0.3333282012 0.6666564023 0.0000000000  Biso 1.0 Y
Y10 1.0000000000 0.6666717988 0.3333435977 0.5000000000  Biso 1.0 Y
Y11 1.0000000000 0.0000000000 0.7576674108 0.2500000000  Biso 1.0 Y
Y12 1.0000000000 0.2423325892 0.2423325892 0.2500000000  Biso 1.0 Y
Y13 1.0000000000 0.7576544872 0.0000000000 0.2500000000  Biso 1.0 Y
Y14 1.0000000000 0.0000000000 0.2423325892 0.7500000000  Biso 1.0 Y
Y15 1.0000000000 0.7576674108 0.7576674108 0.7500000000  Biso 1.0 Y
Y16 1.0000000000 0.2423455128 0.0000000000 0.7500000000  Biso 1.0 Y
