# AFLOW.org Repositories
# Ge6Ho4Ir7   [BCC,BCC,cI34] (STD_PRIM doi
data_Ge6Ho4Ir7
_pd_phase_name Ge6Ho4Ir7
_cell_length_a  7.2322498051
_cell_length_b  7.2322498051
_cell_length_c  7.2322498051
_cell_angle_alpha  109.4712206345
_cell_angle_beta  109.4712206345
_cell_angle_gamma  109.4712206345
_symmetry_space_group_name_H-M  'P1'
_symmetry_Int_Tables_Number  1
loop_
_symmetry_equiv_pos_site_id
_symmetry_equiv_pos_as_xyz
  1  x,y,z
loop_
 _atom_site_label
 _atom_site_occupancy
 _atom_site_fract_x
 _atom_site_fract_y
 _atom_site_fract_z
 _atom_site_thermal_displace_type
 _atom_site_B_iso_or_equiv
 _atom_site_type_symbol
Ge1 1.0000000000 0.0000000000 0.3183034514 0.3183034514  Biso 1.0 Ge
Ge2 1.0000000000 0.0000000000 0.6816965486 0.6816965486  Biso 1.0 Ge
Ge3 1.0000000000 0.3183034514 0.0000000000 0.3183034514  Biso 1.0 Ge
Ge4 1.0000000000 0.6816965486 0.0000000000 0.6816965486  Biso 1.0 Ge
Ge5 1.0000000000 0.3183034514 0.3183034514 0.0000000000  Biso 1.0 Ge
Ge6 1.0000000000 0.6816965486 0.6816965486 0.0000000000  Biso 1.0 Ge
Ho7 1.0000000000 0.5000000000 0.5000000000 0.5000000000  Biso 1.0 Ho
Ho8 1.0000000000 0.0000000000 0.0000000000 0.5000000000  Biso 1.0 Ho
Ho9 1.0000000000 0.0000000000 0.5000000000 0.0000000000  Biso 1.0 Ho
Ho10 1.0000000000 0.5000000000 0.0000000000 0.0000000000  Biso 1.0 Ho
Ir11 1.0000000000 0.5000000000 0.7500000000 0.2500000000  Biso 1.0 Ir
Ir12 1.0000000000 0.5000000000 0.2500000000 0.7500000000  Biso 1.0 Ir
Ir13 1.0000000000 0.2500000000 0.5000000000 0.7500000000  Biso 1.0 Ir
Ir14 1.0000000000 0.7500000000 0.5000000000 0.2500000000  Biso 1.0 Ir
Ir15 1.0000000000 0.7500000000 0.2500000000 0.5000000000  Biso 1.0 Ir
Ir16 1.0000000000 0.2500000000 0.7500000000 0.5000000000  Biso 1.0 Ir
Ir17 1.0000000000 0.0000000000 0.0000000000 0.0000000000  Biso 1.0 Ir
