# AFLOW.org Repositories
# Ge7Hf6Ni16   [FCC,FCC,cF116] (STD_PRIM d
data_Ge7Hf6Ni16
_pd_phase_name Ge7Hf6Ni16
_cell_length_a  8.1635493076
_cell_length_b  8.1635493076
_cell_length_c  8.1635493076
_cell_angle_alpha  60.0000000000
_cell_angle_beta  60.0000000000
_cell_angle_gamma  60.0000000000
_symmetry_space_group_name_H-M  'P1'
_symmetry_Int_Tables_Number  1
loop_
_symmetry_equiv_pos_site_id
_symmetry_equiv_pos_as_xyz
  1  x,y,z
loop_
 _atom_site_label
 _atom_site_occupancy
 _atom_site_fract_x
 _atom_site_fract_y
 _atom_site_fract_z
 _atom_site_thermal_displace_type
 _atom_site_B_iso_or_equiv
 _atom_site_type_symbol
Ge1 1.0000000000 0.5000000000 0.5000000000 0.5000000000  Biso 1.0 Ge
Ge2 1.0000000000 0.5000000000 0.5000000000 0.0000000000  Biso 1.0 Ge
Ge3 1.0000000000 0.0000000000 0.0000000000 0.5000000000  Biso 1.0 Ge
Ge4 1.0000000000 0.0000000000 0.5000000000 0.5000000000  Biso 1.0 Ge
Ge5 1.0000000000 0.5000000000 0.0000000000 0.0000000000  Biso 1.0 Ge
Ge6 1.0000000000 0.0000000000 0.5000000000 0.0000000000  Biso 1.0 Ge
Ge7 1.0000000000 0.5000000000 0.0000000000 0.5000000000  Biso 1.0 Ge
Hf8 1.0000000000 0.7939733814 0.7939733814 0.2060266186  Biso 1.0 Hf
Hf9 1.0000000000 0.2060266186 0.2060266186 0.7939733814  Biso 1.0 Hf
Hf10 1.0000000000 0.2060266186 0.7939733814 0.7939733814  Biso 1.0 Hf
Hf11 1.0000000000 0.7939733814 0.2060266186 0.2060266186  Biso 1.0 Hf
Hf12 1.0000000000 0.2060266186 0.7939733814 0.2060266186  Biso 1.0 Hf
Hf13 1.0000000000 0.7939733814 0.2060266186 0.7939733814  Biso 1.0 Hf
Ni14 1.0000000000 0.1671310999 0.4986067002 0.1671310999  Biso 1.0 Ni
Ni15 1.0000000000 0.1671310999 0.1671310999 0.1671310999  Biso 1.0 Ni
Ni16 1.0000000000 0.1671310999 0.1671310999 0.4986067002  Biso 1.0 Ni
Ni17 1.0000000000 0.4986067002 0.1671310999 0.1671310999  Biso 1.0 Ni
Ni18 1.0000000000 0.8328689001 0.8328689001 0.8328689001  Biso 1.0 Ni
Ni19 1.0000000000 0.8328689001 0.5013932998 0.8328689001  Biso 1.0 Ni
Ni20 1.0000000000 0.8328689001 0.8328689001 0.5013932998  Biso 1.0 Ni
Ni21 1.0000000000 0.5013932998 0.8328689001 0.8328689001  Biso 1.0 Ni
Ni22 1.0000000000 0.3816139297 0.8551582109 0.3816139297  Biso 1.0 Ni
Ni23 1.0000000000 0.3816139297 0.3816139297 0.3816139297  Biso 1.0 Ni
Ni24 1.0000000000 0.3816139297 0.3816139297 0.8551582109  Biso 1.0 Ni
Ni25 1.0000000000 0.8551582109 0.3816139297 0.3816139297  Biso 1.0 Ni
Ni26 1.0000000000 0.6183860703 0.6183860703 0.6183860703  Biso 1.0 Ni
Ni27 1.0000000000 0.6183860703 0.1448417891 0.6183860703  Biso 1.0 Ni
Ni28 1.0000000000 0.6183860703 0.6183860703 0.1448417891  Biso 1.0 Ni
Ni29 1.0000000000 0.1448417891 0.6183860703 0.6183860703  Biso 1.0 Ni
