# AFLOW.org Repositories
# H9.975La3.99   [BCT,BCT2,tI28] (STD_PRIM
data_H9.975La3.99
_pd_phase_name H9.975La3.99
_cell_length_a  6.9480215480
_cell_length_b  6.9480215480
_cell_length_c  6.9480215480
_cell_angle_alpha  132.5390015868
_cell_angle_beta  132.5390015868
_cell_angle_gamma  69.3790531388
_symmetry_space_group_name_H-M  'P1'
_symmetry_Int_Tables_Number  1
loop_
_symmetry_equiv_pos_site_id
_symmetry_equiv_pos_as_xyz
  1  x,y,z
loop_
 _atom_site_label
 _atom_site_occupancy
 _atom_site_fract_x
 _atom_site_fract_y
 _atom_site_fract_z
 _atom_site_thermal_displace_type
 _atom_site_B_iso_or_equiv
 _atom_site_type_symbol
H1 1.0000000000 0.1500621308 0.6310196595 0.0188244490  Biso 1.0 H
H2 1.0000000000 0.6121952105 0.1312376818 0.9811755510  Biso 1.0 H
H3 1.0000000000 0.3812376818 0.9000621308 0.0190424713  Biso 1.0 H
H4 1.0000000000 0.8810196595 0.3621952105 0.9809575287  Biso 1.0 H
H5 1.0000000000 0.6121952105 0.6310196595 0.4809575287  Biso 1.0 H
H6 1.0000000000 0.1500621308 0.1312376818 0.5190424713  Biso 1.0 H
H7 1.0000000000 0.8810196595 0.9000621308 0.5188244490  Biso 1.0 H
H8 1.0000000000 0.3812376818 0.3621952105 0.4811755510  Biso 1.0 H
H9 1.0000000000 0.7574490369 0.7574490369 0.0000000000  Biso 1.0 H
H10 1.0000000000 0.0074490369 0.5074490369 0.5000000000  Biso 1.0 H
La11 1.0000000000 0.0024095588 0.0024095588 0.0000000000  Biso 1.0 La
La12 1.0000000000 0.2524095588 0.7524095588 0.5000000000  Biso 1.0 La
La13 1.0000000000 0.5096267216 0.5096267216 0.0000000000  Biso 1.0 La
La14 1.0000000000 0.7596267216 0.2596267216 0.5000000000  Biso 1.0 La
