# AFLOW.org Repositories
# Hf1Re2   [HEX,HEX,hP12] (STD_PRIM doi:10
data_Hf1Re2
_pd_phase_name Hf1Re2
_cell_length_a  5.2888321457
_cell_length_b  5.2888321457
_cell_length_c  8.6427085929
_cell_angle_alpha  90.0000000000
_cell_angle_beta  90.0000000000
_cell_angle_gamma  120.0000000000
_symmetry_space_group_name_H-M  'P1'
_symmetry_Int_Tables_Number  1
loop_
_symmetry_equiv_pos_site_id
_symmetry_equiv_pos_as_xyz
  1  x,y,z
loop_
 _atom_site_label
 _atom_site_occupancy
 _atom_site_fract_x
 _atom_site_fract_y
 _atom_site_fract_z
 _atom_site_thermal_displace_type
 _atom_site_B_iso_or_equiv
 _atom_site_type_symbol
Hf1 1.0000000000 0.3333231018 0.6666768982 0.0618886761  Biso 1.0 Hf
Hf2 1.0000000000 0.6666768982 0.3333231018 0.5618886761  Biso 1.0 Hf
Hf3 1.0000000000 0.6666768982 0.3333231018 0.9381113239  Biso 1.0 Hf
Hf4 1.0000000000 0.3333231018 0.6666768982 0.4381113239  Biso 1.0 Hf
Re5 1.0000000000 0.0000000000 0.0000000000 0.0000000000  Biso 1.0 Re
Re6 1.0000000000 0.0000000000 0.0000000000 0.5000000000  Biso 1.0 Re
Re7 1.0000000000 0.8280556279 0.6561335315 0.2500000000  Biso 1.0 Re
Re8 1.0000000000 0.3438664685 0.1719443721 0.2500000000  Biso 1.0 Re
Re9 1.0000000000 0.8280655150 0.1719344850 0.2500000000  Biso 1.0 Re
Re10 1.0000000000 0.1719443721 0.3438664685 0.7500000000  Biso 1.0 Re
Re11 1.0000000000 0.6561335315 0.8280556279 0.7500000000  Biso 1.0 Re
Re12 1.0000000000 0.1719344850 0.8280655150 0.7500000000  Biso 1.0 Re
