# AFLOW.org Repositories
# Hf3N1Zn3   [FCC,FCC,cF112] (STD_PRIM doi
data_Hf3N1Zn3
_pd_phase_name Hf3N1Zn3
_cell_length_a  8.4985708417
_cell_length_b  8.4985708417
_cell_length_c  8.4985708417
_cell_angle_alpha  60.0000000000
_cell_angle_beta  60.0000000000
_cell_angle_gamma  60.0000000000
_symmetry_space_group_name_H-M  'P1'
_symmetry_Int_Tables_Number  1
loop_
_symmetry_equiv_pos_site_id
_symmetry_equiv_pos_as_xyz
  1  x,y,z
loop_
 _atom_site_label
 _atom_site_occupancy
 _atom_site_fract_x
 _atom_site_fract_y
 _atom_site_fract_z
 _atom_site_thermal_displace_type
 _atom_site_B_iso_or_equiv
 _atom_site_type_symbol
Hf1 1.0000000000 0.6848379693 0.3151620307 0.3151620307  Biso 1.0 Hf
Hf2 1.0000000000 0.3151620307 0.6848379693 0.6848379693  Biso 1.0 Hf
Hf3 1.0000000000 0.3151620307 0.3151620307 0.6848379693  Biso 1.0 Hf
Hf4 1.0000000000 0.6848379693 0.6848379693 0.3151620307  Biso 1.0 Hf
Hf5 1.0000000000 0.6848379693 0.3151620307 0.6848379693  Biso 1.0 Hf
Hf6 1.0000000000 0.3151620307 0.6848379693 0.3151620307  Biso 1.0 Hf
Hf7 1.0000000000 0.0651620307 0.0651620307 0.4348379693  Biso 1.0 Hf
Hf8 1.0000000000 0.4348379693 0.4348379693 0.0651620307  Biso 1.0 Hf
Hf9 1.0000000000 0.4348379693 0.0651620307 0.0651620307  Biso 1.0 Hf
Hf10 1.0000000000 0.0651620307 0.4348379693 0.4348379693  Biso 1.0 Hf
Hf11 1.0000000000 0.0651620307 0.4348379693 0.0651620307  Biso 1.0 Hf
Hf12 1.0000000000 0.4348379693 0.0651620307 0.4348379693  Biso 1.0 Hf
N13 1.0000000000 0.3750000000 0.8750000000 0.3750000000  Biso 1.0 N
N14 1.0000000000 0.3750000000 0.3750000000 0.3750000000  Biso 1.0 N
N15 1.0000000000 0.8750000000 0.3750000000 0.3750000000  Biso 1.0 N
N16 1.0000000000 0.3750000000 0.3750000000 0.8750000000  Biso 1.0 N
Zn17 1.0000000000 0.0813234394 0.7560296819 0.0813234394  Biso 1.0 Zn
Zn18 1.0000000000 0.0813234394 0.0813234394 0.0813234394  Biso 1.0 Zn
Zn19 1.0000000000 0.7560296819 0.0813234394 0.0813234394  Biso 1.0 Zn
Zn20 1.0000000000 0.0813234394 0.0813234394 0.7560296819  Biso 1.0 Zn
Zn21 1.0000000000 0.6686765606 0.6686765606 0.6686765606  Biso 1.0 Zn
Zn22 1.0000000000 0.6686765606 0.9939703181 0.6686765606  Biso 1.0 Zn
Zn23 1.0000000000 0.9939703181 0.6686765606 0.6686765606  Biso 1.0 Zn
Zn24 1.0000000000 0.6686765606 0.6686765606 0.9939703181  Biso 1.0 Zn
Zn25 1.0000000000 0.8750000000 0.3750000000 0.8750000000  Biso 1.0 Zn
Zn26 1.0000000000 0.8750000000 0.8750000000 0.8750000000  Biso 1.0 Zn
Zn27 1.0000000000 0.3750000000 0.8750000000 0.8750000000  Biso 1.0 Zn
Zn28 1.0000000000 0.8750000000 0.8750000000 0.3750000000  Biso 1.0 Zn
