# AFLOW.org Repositories
# Hg1I2   [TET,TET,tP24] (STD_PRIM doi:10.
data_Hg1I2
_pd_phase_name Hg1I2
_cell_length_a  9.1005567041
_cell_length_b  9.1005567041
_cell_length_c  13.2697084652
_cell_angle_alpha  90.0000000000
_cell_angle_beta  90.0000000000
_cell_angle_gamma  90.0000000000
_symmetry_space_group_name_H-M  'P1'
_symmetry_Int_Tables_Number  1
loop_
_symmetry_equiv_pos_site_id
_symmetry_equiv_pos_as_xyz
  1  x,y,z
loop_
 _atom_site_label
 _atom_site_occupancy
 _atom_site_fract_x
 _atom_site_fract_y
 _atom_site_fract_z
 _atom_site_thermal_displace_type
 _atom_site_B_iso_or_equiv
 _atom_site_type_symbol
Hg1 1.0000000000 0.4975027249 0.7498202017 0.1285909747  Biso 1.0 Hg
Hg2 1.0000000000 0.0028493947 0.7498192792 0.1285353107  Biso 1.0 Hg
Hg3 1.0000000000 0.7498202017 0.4975027249 0.6285909747  Biso 1.0 Hg
Hg4 1.0000000000 0.7498192792 0.0028493947 0.6285353107  Biso 1.0 Hg
Hg5 1.0000000000 0.5024972751 0.2501797983 0.8714090253  Biso 1.0 Hg
Hg6 1.0000000000 0.9971506053 0.2501807208 0.8714646893  Biso 1.0 Hg
Hg7 1.0000000000 0.2501807208 0.9971506053 0.3714646893  Biso 1.0 Hg
Hg8 1.0000000000 0.2501797983 0.5024972751 0.3714090253  Biso 1.0 Hg
I9 1.0000000000 0.2500620270 0.2501219882 0.5006483653  Biso 1.0 I
I10 1.0000000000 0.2501219882 0.2500620270 0.0000000000  Biso 1.0 I
I11 1.0000000000 0.7499379730 0.7498780118 0.4993516347  Biso 1.0 I
I12 1.0000000000 0.7498780118 0.7499379730 0.0000000000  Biso 1.0 I
I13 1.0000000000 0.5089724172 0.0090319178 0.2501066520  Biso 1.0 I
I14 1.0000000000 0.9909680822 0.4910275828 0.2498933480  Biso 1.0 I
I15 1.0000000000 0.4910145822 0.5089854178 0.7500000000  Biso 1.0 I
I16 1.0000000000 0.0090182742 0.9909817258 0.7500000000  Biso 1.0 I
I17 1.0000000000 0.4910275828 0.9909680822 0.7498933480  Biso 1.0 I
I18 1.0000000000 0.0090319178 0.5089724172 0.7501066520  Biso 1.0 I
I19 1.0000000000 0.5089854178 0.4910145822 0.2500000000  Biso 1.0 I
I20 1.0000000000 0.9909817258 0.0090182742 0.2500000000  Biso 1.0 I
I21 1.0000000000 0.2500543046 0.7501097077 0.5042329184  Biso 1.0 I
I22 1.0000000000 0.7501097077 0.2500543046 0.0042329184  Biso 1.0 I
I23 1.0000000000 0.7499456954 0.2498902923 0.4957670816  Biso 1.0 I
I24 1.0000000000 0.2498902923 0.7499456954 0.9957670816  Biso 1.0 I
