# AFLOW.org Repositories
# Hg1O2Rb2   [BCT,BCT2,tI10] (STD_PRIM doi
data_Hg1O2Rb2
_pd_phase_name Hg1O2Rb2
_cell_length_a  7.8117008146
_cell_length_b  7.8117008146
_cell_length_c  7.8117008146
_cell_angle_alpha  148.4461032037
_cell_angle_beta  148.4461032037
_cell_angle_gamma  45.2272570044
_symmetry_space_group_name_H-M  'P1'
_symmetry_Int_Tables_Number  1
loop_
_symmetry_equiv_pos_site_id
_symmetry_equiv_pos_as_xyz
  1  x,y,z
loop_
 _atom_site_label
 _atom_site_occupancy
 _atom_site_fract_x
 _atom_site_fract_y
 _atom_site_fract_z
 _atom_site_thermal_displace_type
 _atom_site_B_iso_or_equiv
 _atom_site_type_symbol
Hg1 1.0000000000 0.0000000000 0.0000000000 0.0000000000  Biso 1.0 Hg
O2 1.0000000000 0.8609954394 0.8609954394 0.0000000000  Biso 1.0 O
O3 1.0000000000 0.1390045606 0.1390045606 0.0000000000  Biso 1.0 O
Rb4 1.0000000000 0.6657302240 0.6657302240 0.0000000000  Biso 1.0 Rb
Rb5 1.0000000000 0.3342697760 0.3342697760 0.0000000000  Biso 1.0 Rb
