# AFLOW.org Repositories
# Hg3Mg5   [HEX,HEX,hP16] (STD_PRIM doi:10
data_Hg3Mg5
_pd_phase_name Hg3Mg5
_cell_length_a  8.3063895559
_cell_length_b  8.3063895559
_cell_length_c  5.9381003217
_cell_angle_alpha  90.0000000000
_cell_angle_beta  90.0000000000
_cell_angle_gamma  120.0000000000
_symmetry_space_group_name_H-M  'P1'
_symmetry_Int_Tables_Number  1
loop_
_symmetry_equiv_pos_site_id
_symmetry_equiv_pos_as_xyz
  1  x,y,z
loop_
 _atom_site_label
 _atom_site_occupancy
 _atom_site_fract_x
 _atom_site_fract_y
 _atom_site_fract_z
 _atom_site_thermal_displace_type
 _atom_site_B_iso_or_equiv
 _atom_site_type_symbol
Hg1 1.0000000000 0.3880071725 0.3880071725 0.2500000000  Biso 1.0 Hg
Hg2 1.0000000000 0.6119837518 0.0000000000 0.2500000000  Biso 1.0 Hg
Hg3 1.0000000000 0.0000000000 0.6119735239 0.2500000000  Biso 1.0 Hg
Hg4 1.0000000000 0.6119928275 0.6119928275 0.7500000000  Biso 1.0 Hg
Hg5 1.0000000000 0.3880162482 0.0000000000 0.7500000000  Biso 1.0 Hg
Hg6 1.0000000000 0.0000000000 0.3880264761 0.7500000000  Biso 1.0 Hg
Mg7 1.0000000000 0.3333851809 0.6666925905 0.0000000000  Biso 1.0 Mg
Mg8 1.0000000000 0.6666148191 0.3333074095 0.5000000000  Biso 1.0 Mg
Mg9 1.0000000000 0.6666148191 0.3333074095 0.0000000000  Biso 1.0 Mg
Mg10 1.0000000000 0.3333851809 0.6666925905 0.5000000000  Biso 1.0 Mg
Mg11 1.0000000000 0.7491146987 0.7491146987 0.2500000000  Biso 1.0 Mg
Mg12 1.0000000000 0.2508873765 0.0000000000 0.2500000000  Biso 1.0 Mg
Mg13 1.0000000000 0.0000000000 0.2508984149 0.2500000000  Biso 1.0 Mg
Mg14 1.0000000000 0.2508853013 0.2508853013 0.7500000000  Biso 1.0 Mg
Mg15 1.0000000000 0.7491126235 0.0000000000 0.7500000000  Biso 1.0 Mg
Mg16 1.0000000000 0.0000000000 0.7491015851 0.7500000000  Biso 1.0 Mg
