# AFLOW.org Repositories
# Hg4Pt1   [BCC,BCC,cI10] (STD_PRIM doi:10
data_Hg4Pt1
_pd_phase_name Hg4Pt1
_cell_length_a  5.4997325560
_cell_length_b  5.4997325560
_cell_length_c  5.4997325560
_cell_angle_alpha  109.4712206345
_cell_angle_beta  109.4712206345
_cell_angle_gamma  109.4712206345
_symmetry_space_group_name_H-M  'P1'
_symmetry_Int_Tables_Number  1
loop_
_symmetry_equiv_pos_site_id
_symmetry_equiv_pos_as_xyz
  1  x,y,z
loop_
 _atom_site_label
 _atom_site_occupancy
 _atom_site_fract_x
 _atom_site_fract_y
 _atom_site_fract_z
 _atom_site_thermal_displace_type
 _atom_site_B_iso_or_equiv
 _atom_site_type_symbol
Hg1 1.0000000000 0.5000000000 0.0000000000 0.0000000000  Biso 1.0 Hg
Hg2 1.0000000000 0.0000000000 0.5000000000 0.0000000000  Biso 1.0 Hg
Hg3 1.0000000000 0.0000000000 0.0000000000 0.5000000000  Biso 1.0 Hg
Hg4 1.0000000000 0.5000000000 0.5000000000 0.5000000000  Biso 1.0 Hg
Pt5 1.0000000000 0.0000000000 0.0000000000 0.0000000000  Biso 1.0 Pt
