# AFLOW.org Repositories
# Ho1Rh1Sn1   [HEX,HEX,hP9] (STD_PRIM doi:
data_Ho1Rh1Sn1
_pd_phase_name Ho1Rh1Sn1
_cell_length_a  7.6414864452
_cell_length_b  7.6414864452
_cell_length_c  3.7582581909
_cell_angle_alpha  90.0000000000
_cell_angle_beta  90.0000000000
_cell_angle_gamma  120.0000000000
_symmetry_space_group_name_H-M  'P1'
_symmetry_Int_Tables_Number  1
loop_
_symmetry_equiv_pos_site_id
_symmetry_equiv_pos_as_xyz
  1  x,y,z
loop_
 _atom_site_label
 _atom_site_occupancy
 _atom_site_fract_x
 _atom_site_fract_y
 _atom_site_fract_z
 _atom_site_thermal_displace_type
 _atom_site_B_iso_or_equiv
 _atom_site_type_symbol
Ho1 1.0000000000 0.0000000000 0.5949543189 0.0000000000  Biso 1.0 Ho
Ho2 1.0000000000 0.4050456811 0.4050456811 0.0000000000  Biso 1.0 Ho
Ho3 1.0000000000 0.5949521179 0.0000000000 0.0000000000  Biso 1.0 Ho
Rh4 1.0000000000 0.6666778212 0.3333569687 0.5000000000  Biso 1.0 Rh
Rh5 1.0000000000 0.3333208525 0.6666430313 0.5000000000  Biso 1.0 Rh
Rh6 1.0000000000 0.0000000000 0.0000000000 0.0000000000  Biso 1.0 Rh
Sn7 1.0000000000 0.0000000000 0.2644809189 0.5000000000  Biso 1.0 Sn
Sn8 1.0000000000 0.7355190811 0.7355190811 0.5000000000  Biso 1.0 Sn
Sn9 1.0000000000 0.2644865487 0.0000000000 0.5000000000  Biso 1.0 Sn
