# AFLOW.org Repositories
# Ho1Sn2   [ORCC,ORCC,oS12] (STD_PRIM doi:
data_Ho1Sn2
_pd_phase_name Ho1Sn2
_cell_length_a  8.5401218547
_cell_length_b  8.5401218547
_cell_length_c  4.4031170926
_cell_angle_alpha  90.0000000000
_cell_angle_beta  90.0000000000
_cell_angle_gamma  149.7904299181
_symmetry_space_group_name_H-M  'P1'
_symmetry_Int_Tables_Number  1
loop_
_symmetry_equiv_pos_site_id
_symmetry_equiv_pos_as_xyz
  1  x,y,z
loop_
 _atom_site_label
 _atom_site_occupancy
 _atom_site_fract_x
 _atom_site_fract_y
 _atom_site_fract_z
 _atom_site_thermal_displace_type
 _atom_site_B_iso_or_equiv
 _atom_site_type_symbol
Ho1 1.0000000000 0.9012933536 0.0987066464 0.7500000000  Biso 1.0 Ho
Ho2 1.0000000000 0.0987066464 0.9012933536 0.2500000000  Biso 1.0 Ho
Sn3 1.0000000000 0.5648101030 0.4351898970 0.7500000000  Biso 1.0 Sn
Sn4 1.0000000000 0.4351898970 0.5648101030 0.2500000000  Biso 1.0 Sn
Sn5 1.0000000000 0.2512834972 0.7487165028 0.7500000000  Biso 1.0 Sn
Sn6 1.0000000000 0.7487165028 0.2512834972 0.2500000000  Biso 1.0 Sn
