# AFLOW.org Repositories
# Ho2O3   [BCC,BCC,cI80] (STD_PRIM doi:10.
data_Ho2O3
_pd_phase_name Ho2O3
_cell_length_a  9.1846275920
_cell_length_b  9.1846275920
_cell_length_c  9.1846275920
_cell_angle_alpha  109.4712206345
_cell_angle_beta  109.4712206345
_cell_angle_gamma  109.4712206345
_symmetry_space_group_name_H-M  'P1'
_symmetry_Int_Tables_Number  1
loop_
_symmetry_equiv_pos_site_id
_symmetry_equiv_pos_as_xyz
  1  x,y,z
loop_
 _atom_site_label
 _atom_site_occupancy
 _atom_site_fract_x
 _atom_site_fract_y
 _atom_site_fract_z
 _atom_site_thermal_displace_type
 _atom_site_B_iso_or_equiv
 _atom_site_type_symbol
Ho1 1.0000000000 0.5000000000 0.5000000000 0.5000000000  Biso 1.0 Ho
Ho2 1.0000000000 0.0000000000 0.0000000000 0.5000000000  Biso 1.0 Ho
Ho3 1.0000000000 0.0000000000 0.5000000000 0.0000000000  Biso 1.0 Ho
Ho4 1.0000000000 0.5000000000 0.0000000000 0.0000000000  Biso 1.0 Ho
Ho5 1.0000000000 0.2171572697 0.9671572697 0.2500000000  Biso 1.0 Ho
Ho6 1.0000000000 0.2828427303 0.5328427303 0.7500000000  Biso 1.0 Ho
Ho7 1.0000000000 0.2500000000 0.2171572697 0.9671572697  Biso 1.0 Ho
Ho8 1.0000000000 0.7500000000 0.2828427303 0.5328427303  Biso 1.0 Ho
Ho9 1.0000000000 0.9671572697 0.2500000000 0.2171572697  Biso 1.0 Ho
Ho10 1.0000000000 0.5328427303 0.7500000000 0.2828427303  Biso 1.0 Ho
Ho11 1.0000000000 0.7828427303 0.0328427303 0.7500000000  Biso 1.0 Ho
Ho12 1.0000000000 0.7171572697 0.4671572697 0.2500000000  Biso 1.0 Ho
Ho13 1.0000000000 0.7500000000 0.7828427303 0.0328427303  Biso 1.0 Ho
Ho14 1.0000000000 0.2500000000 0.7171572697 0.4671572697  Biso 1.0 Ho
Ho15 1.0000000000 0.0328427303 0.7500000000 0.7828427303  Biso 1.0 Ho
Ho16 1.0000000000 0.4671572697 0.2500000000 0.7171572697  Biso 1.0 Ho
O17 1.0000000000 0.7707441208 0.5425625520 0.5314322693  Biso 1.0 O
O18 1.0000000000 0.9888697173 0.9574374480 0.7281815687  Biso 1.0 O
O19 1.0000000000 0.7292558792 0.2606881485 0.7718184313  Biso 1.0 O
O20 1.0000000000 0.5111302827 0.2393118515 0.9685677307  Biso 1.0 O
O21 1.0000000000 0.5314322693 0.7707441208 0.5425625520  Biso 1.0 O
O22 1.0000000000 0.7281815687 0.9888697173 0.9574374480  Biso 1.0 O
O23 1.0000000000 0.7718184313 0.7292558792 0.2606881485  Biso 1.0 O
O24 1.0000000000 0.9685677307 0.5111302827 0.2393118515  Biso 1.0 O
O25 1.0000000000 0.5425625520 0.5314322693 0.7707441208  Biso 1.0 O
O26 1.0000000000 0.9574374480 0.7281815687 0.9888697173  Biso 1.0 O
O27 1.0000000000 0.2606881485 0.7718184313 0.7292558792  Biso 1.0 O
O28 1.0000000000 0.2393118515 0.9685677307 0.5111302827  Biso 1.0 O
O29 1.0000000000 0.2292558792 0.4574374480 0.4685677307  Biso 1.0 O
O30 1.0000000000 0.0111302827 0.0425625520 0.2718184313  Biso 1.0 O
O31 1.0000000000 0.2707441208 0.7393118515 0.2281815687  Biso 1.0 O
O32 1.0000000000 0.4888697173 0.7606881485 0.0314322693  Biso 1.0 O
O33 1.0000000000 0.4685677307 0.2292558792 0.4574374480  Biso 1.0 O
O34 1.0000000000 0.2718184313 0.0111302827 0.0425625520  Biso 1.0 O
O35 1.0000000000 0.2281815687 0.2707441208 0.7393118515  Biso 1.0 O
O36 1.0000000000 0.0314322693 0.4888697173 0.7606881485  Biso 1.0 O
O37 1.0000000000 0.4574374480 0.4685677307 0.2292558792  Biso 1.0 O
O38 1.0000000000 0.0425625520 0.2718184313 0.0111302827  Biso 1.0 O
O39 1.0000000000 0.7393118515 0.2281815687 0.2707441208  Biso 1.0 O
O40 1.0000000000 0.7606881485 0.0314322693 0.4888697173  Biso 1.0 O
