# AFLOW.org Repositories
# I2Pb1   [HEX,HEX,hP9] (STD_PRIM doi:10.1
data_I2Pb1
_pd_phase_name I2Pb1
_cell_length_a  4.6480341911
_cell_length_b  4.6480341911
_cell_length_c  22.4339479471
_cell_angle_alpha  90.0000000000
_cell_angle_beta  90.0000000000
_cell_angle_gamma  120.0000000000
_symmetry_space_group_name_H-M  'P1'
_symmetry_Int_Tables_Number  1
loop_
_symmetry_equiv_pos_site_id
_symmetry_equiv_pos_as_xyz
  1  x,y,z
loop_
 _atom_site_label
 _atom_site_occupancy
 _atom_site_fract_x
 _atom_site_fract_y
 _atom_site_fract_z
 _atom_site_thermal_displace_type
 _atom_site_B_iso_or_equiv
 _atom_site_type_symbol
I1 1.0000000000 0.3333517325 0.6666758662 0.0831880069  Biso 1.0 I
I2 1.0000000000 0.6666565406 0.3333282703 0.2499789437  Biso 1.0 I
I3 1.0000000000 0.3333558944 0.6666779472 0.4161796089  Biso 1.0 I
I4 1.0000000000 0.0000000000 0.0000000000 0.5837431505  Biso 1.0 I
I5 1.0000000000 0.3333531544 0.6666765772 0.7499199829  Biso 1.0 I
I6 1.0000000000 0.6666539408 0.3333269704 0.9170159351  Biso 1.0 I
Pb7 1.0000000000 0.0000000000 0.0000000000 0.0000000000  Biso 1.0 Pb
Pb8 1.0000000000 0.0000000000 0.0000000000 0.3331213531  Biso 1.0 Pb
Pb9 1.0000000000 0.6666814301 0.3333407151 0.6667692926  Biso 1.0 Pb
