# AFLOW.org Repositories
# I5In1Sn2   [BCT,BCT2,tI32] (STD_PRIM doi
data_I5In1Sn2
_pd_phase_name I5In1Sn2
_cell_length_a  10.0430419761
_cell_length_b  10.0430419761
_cell_length_c  10.0430419761
_cell_angle_alpha  127.2012950794
_cell_angle_beta  127.2012950794
_cell_angle_gamma  77.9225195809
_symmetry_space_group_name_H-M  'P1'
_symmetry_Int_Tables_Number  1
loop_
_symmetry_equiv_pos_site_id
_symmetry_equiv_pos_as_xyz
  1  x,y,z
loop_
 _atom_site_label
 _atom_site_occupancy
 _atom_site_fract_x
 _atom_site_fract_y
 _atom_site_fract_z
 _atom_site_thermal_displace_type
 _atom_site_B_iso_or_equiv
 _atom_site_type_symbol
I1 1.0000000000 0.0000000000 0.0000000000 0.0000000000  Biso 1.0 I
I2 1.0000000000 0.5000000000 0.5000000000 0.0000000000  Biso 1.0 I
I3 1.0000000000 0.5197787026 0.7021232907 0.5000000000  Biso 1.0 I
I4 1.0000000000 0.2021232907 0.0197787026 0.5000000000  Biso 1.0 I
I5 1.0000000000 0.7021232907 0.2021232907 0.1823445882  Biso 1.0 I
I6 1.0000000000 0.0197787026 0.5197787026 0.8176554118  Biso 1.0 I
I7 1.0000000000 0.9802212974 0.4802212974 0.1823445882  Biso 1.0 I
I8 1.0000000000 0.2978767093 0.7978767093 0.8176554118  Biso 1.0 I
I9 1.0000000000 0.7978767093 0.9802212974 0.5000000000  Biso 1.0 I
I10 1.0000000000 0.4802212974 0.2978767093 0.5000000000  Biso 1.0 I
In11 1.0000000000 0.2500000000 0.2500000000 0.0000000000  Biso 1.0 In
In12 1.0000000000 0.7500000000 0.7500000000 0.0000000000  Biso 1.0 In
Sn13 1.0000000000 0.1702400748 0.3297599252 0.5000000000  Biso 1.0 Sn
Sn14 1.0000000000 0.8297599252 0.6702400748 0.5000000000  Biso 1.0 Sn
Sn15 1.0000000000 0.3297599252 0.8297599252 0.1595198503  Biso 1.0 Sn
Sn16 1.0000000000 0.6702400748 0.1702400748 0.8404801497  Biso 1.0 Sn
