# AFLOW.org Repositories
# I6Rb2Sn1   [FCC,FCC,cF36] (STD_PRIM doi:
data_I6Rb2Sn1
_pd_phase_name I6Rb2Sn1
_cell_length_a  8.3990616494
_cell_length_b  8.3990616494
_cell_length_c  8.3990616494
_cell_angle_alpha  60.0000000000
_cell_angle_beta  60.0000000000
_cell_angle_gamma  60.0000000000
_symmetry_space_group_name_H-M  'P1'
_symmetry_Int_Tables_Number  1
loop_
_symmetry_equiv_pos_site_id
_symmetry_equiv_pos_as_xyz
  1  x,y,z
loop_
 _atom_site_label
 _atom_site_occupancy
 _atom_site_fract_x
 _atom_site_fract_y
 _atom_site_fract_z
 _atom_site_thermal_displace_type
 _atom_site_B_iso_or_equiv
 _atom_site_type_symbol
I1 1.0000000000 0.2466392067 0.2466392067 0.7533607933  Biso 1.0 I
I2 1.0000000000 0.7533607933 0.7533607933 0.2466392067  Biso 1.0 I
I3 1.0000000000 0.7533607933 0.2466392067 0.2466392067  Biso 1.0 I
I4 1.0000000000 0.2466392067 0.7533607933 0.7533607933  Biso 1.0 I
I5 1.0000000000 0.2466392067 0.7533607933 0.2466392067  Biso 1.0 I
I6 1.0000000000 0.7533607933 0.2466392067 0.7533607933  Biso 1.0 I
Rb7 1.0000000000 0.2500000000 0.2500000000 0.2500000000  Biso 1.0 Rb
Rb8 1.0000000000 0.7500000000 0.7500000000 0.7500000000  Biso 1.0 Rb
Sn9 1.0000000000 0.0000000000 0.0000000000 0.0000000000  Biso 1.0 Sn
