# AFLOW.org Repositories
# In1Pt1Sr1   [ORC,ORC,oP12] (STD_PRIM doi
data_In1Pt1Sr1
_pd_phase_name In1Pt1Sr1
_cell_length_a  4.5369115036
_cell_length_b  7.6173374098
_cell_length_c  8.5635988448
_cell_angle_alpha  90.0000000000
_cell_angle_beta  90.0000000000
_cell_angle_gamma  90.0000000000
_symmetry_space_group_name_H-M  'P1'
_symmetry_Int_Tables_Number  1
loop_
_symmetry_equiv_pos_site_id
_symmetry_equiv_pos_as_xyz
  1  x,y,z
loop_
 _atom_site_label
 _atom_site_occupancy
 _atom_site_fract_x
 _atom_site_fract_y
 _atom_site_fract_z
 _atom_site_thermal_displace_type
 _atom_site_B_iso_or_equiv
 _atom_site_type_symbol
In1 1.0000000000 0.2500000000 0.1464129612 0.9346367155  Biso 1.0 In
In2 1.0000000000 0.7500000000 0.3535870388 0.4346367155  Biso 1.0 In
In3 1.0000000000 0.7500000000 0.8535870388 0.0653632845  Biso 1.0 In
In4 1.0000000000 0.2500000000 0.6464129612 0.5653632845  Biso 1.0 In
Pt5 1.0000000000 0.2500000000 0.2783254103 0.6210559642  Biso 1.0 Pt
Pt6 1.0000000000 0.7500000000 0.2216745897 0.1210559642  Biso 1.0 Pt
Pt7 1.0000000000 0.7500000000 0.7216745897 0.3789440358  Biso 1.0 Pt
Pt8 1.0000000000 0.2500000000 0.7783254103 0.8789440358  Biso 1.0 Pt
Sr9 1.0000000000 0.2500000000 0.0300281917 0.3217874964  Biso 1.0 Sr
Sr10 1.0000000000 0.7500000000 0.4699718083 0.8217874964  Biso 1.0 Sr
Sr11 1.0000000000 0.7500000000 0.9699718083 0.6782125036  Biso 1.0 Sr
Sr12 1.0000000000 0.2500000000 0.5300281917 0.1782125036  Biso 1.0 Sr
