# AFLOW.org Repositories
# In1Pd2Tb2   [TET,TET,tP10] (STD_PRIM doi
data_In1Pd2Tb2
_pd_phase_name In1Pd2Tb2
_cell_length_a  7.7270215382
_cell_length_b  7.7270215382
_cell_length_c  3.7221710065
_cell_angle_alpha  90.0000000000
_cell_angle_beta  90.0000000000
_cell_angle_gamma  90.0000000000
_symmetry_space_group_name_H-M  'P1'
_symmetry_Int_Tables_Number  1
loop_
_symmetry_equiv_pos_site_id
_symmetry_equiv_pos_as_xyz
  1  x,y,z
loop_
 _atom_site_label
 _atom_site_occupancy
 _atom_site_fract_x
 _atom_site_fract_y
 _atom_site_fract_z
 _atom_site_thermal_displace_type
 _atom_site_B_iso_or_equiv
 _atom_site_type_symbol
In1 1.0000000000 0.0000000000 0.0000000000 0.0000000000  Biso 1.0 In
In2 1.0000000000 0.5000000000 0.5000000000 0.0000000000  Biso 1.0 In
Pd3 1.0000000000 0.3715888983 0.8715888983 0.0000000000  Biso 1.0 Pd
Pd4 1.0000000000 0.6284111017 0.1284111017 0.0000000000  Biso 1.0 Pd
Pd5 1.0000000000 0.1284111017 0.3715888983 0.0000000000  Biso 1.0 Pd
Pd6 1.0000000000 0.8715888983 0.6284111017 0.0000000000  Biso 1.0 Pd
Tb7 1.0000000000 0.1743192057 0.6743192057 0.5000000000  Biso 1.0 Tb
Tb8 1.0000000000 0.8256807943 0.3256807943 0.5000000000  Biso 1.0 Tb
Tb9 1.0000000000 0.3256807943 0.1743192057 0.5000000000  Biso 1.0 Tb
Tb10 1.0000000000 0.6743192057 0.8256807943 0.5000000000  Biso 1.0 Tb
