# AFLOW.org Repositories
# In1Pd2Zr2   [TET,TET,tP20] (STD_PRIM doi
data_In1Pd2Zr2
_pd_phase_name In1Pd2Zr2
_cell_length_a  7.5041204719
_cell_length_b  7.5041204719
_cell_length_c  6.9076932361
_cell_angle_alpha  90.0000000000
_cell_angle_beta  90.0000000000
_cell_angle_gamma  90.0000000000
_symmetry_space_group_name_H-M  'P1'
_symmetry_Int_Tables_Number  1
loop_
_symmetry_equiv_pos_site_id
_symmetry_equiv_pos_as_xyz
  1  x,y,z
loop_
 _atom_site_label
 _atom_site_occupancy
 _atom_site_fract_x
 _atom_site_fract_y
 _atom_site_fract_z
 _atom_site_thermal_displace_type
 _atom_site_B_iso_or_equiv
 _atom_site_type_symbol
In1 1.0000000000 0.0000000000 0.5000000000 0.2500000000  Biso 1.0 In
In2 1.0000000000 0.0000000000 0.5000000000 0.7500000000  Biso 1.0 In
In3 1.0000000000 0.5000000000 0.0000000000 0.2500000000  Biso 1.0 In
In4 1.0000000000 0.5000000000 0.0000000000 0.7500000000  Biso 1.0 In
Pd5 1.0000000000 0.3707338759 0.3707338759 0.2822388750  Biso 1.0 Pd
Pd6 1.0000000000 0.6292661241 0.6292661241 0.2822388750  Biso 1.0 Pd
Pd7 1.0000000000 0.1292661241 0.8707338759 0.7822388750  Biso 1.0 Pd
Pd8 1.0000000000 0.8707338759 0.1292661241 0.7822388750  Biso 1.0 Pd
Pd9 1.0000000000 0.1292661241 0.8707338759 0.2177611250  Biso 1.0 Pd
Pd10 1.0000000000 0.8707338759 0.1292661241 0.2177611250  Biso 1.0 Pd
Pd11 1.0000000000 0.3707338759 0.3707338759 0.7177611250  Biso 1.0 Pd
Pd12 1.0000000000 0.6292661241 0.6292661241 0.7177611250  Biso 1.0 Pd
Zr13 1.0000000000 0.1867370609 0.1867370609 0.0000000000  Biso 1.0 Zr
Zr14 1.0000000000 0.8132629391 0.8132629391 0.0000000000  Biso 1.0 Zr
Zr15 1.0000000000 0.3132629391 0.6867370609 0.5000000000  Biso 1.0 Zr
Zr16 1.0000000000 0.6867370609 0.3132629391 0.5000000000  Biso 1.0 Zr
Zr17 1.0000000000 0.3459947620 0.6540052380 0.0000000000  Biso 1.0 Zr
Zr18 1.0000000000 0.6540052380 0.3459947620 0.0000000000  Biso 1.0 Zr
Zr19 1.0000000000 0.8459947620 0.8459947620 0.5000000000  Biso 1.0 Zr
Zr20 1.0000000000 0.1540052380 0.1540052380 0.5000000000  Biso 1.0 Zr
