# AFLOW.org Repositories
# In2Sr1Te4   [ORCC,ORCC,oS28] (STD_PRIM d
data_In2Sr1Te4
_pd_phase_name In2Sr1Te4
_cell_length_a  6.9609691425
_cell_length_b  6.9609691425
_cell_length_c  11.9936880347
_cell_angle_alpha  90.0000000000
_cell_angle_beta  90.0000000000
_cell_angle_gamma  117.4960538958
_symmetry_space_group_name_H-M  'P1'
_symmetry_Int_Tables_Number  1
loop_
_symmetry_equiv_pos_site_id
_symmetry_equiv_pos_as_xyz
  1  x,y,z
loop_
 _atom_site_label
 _atom_site_occupancy
 _atom_site_fract_x
 _atom_site_fract_y
 _atom_site_fract_z
 _atom_site_thermal_displace_type
 _atom_site_B_iso_or_equiv
 _atom_site_type_symbol
In1 1.0000000000 0.2366251128 0.7684547431 0.0000000000  Biso 1.0 In
In2 1.0000000000 0.7633748872 0.2315452569 0.0000000000  Biso 1.0 In
In3 1.0000000000 0.2315452569 0.7633748872 0.5000000000  Biso 1.0 In
In4 1.0000000000 0.7684547431 0.2366251128 0.5000000000  Biso 1.0 In
Sr5 1.0000000000 0.5000000000 0.5000000000 0.2500000000  Biso 1.0 Sr
Sr6 1.0000000000 0.5000000000 0.5000000000 0.7500000000  Biso 1.0 Sr
Te7 1.0000000000 0.2079039383 0.3428297779 0.0000000000  Biso 1.0 Te
Te8 1.0000000000 0.7920960617 0.6571702221 0.0000000000  Biso 1.0 Te
Te9 1.0000000000 0.6571702221 0.7920960617 0.5000000000  Biso 1.0 Te
Te10 1.0000000000 0.3428297779 0.2079039383 0.5000000000  Biso 1.0 Te
Te11 1.0000000000 0.0000000000 0.5000000000 0.3162501745  Biso 1.0 Te
Te12 1.0000000000 0.5000000000 0.0000000000 0.1837498255  Biso 1.0 Te
Te13 1.0000000000 0.0000000000 0.5000000000 0.6837498255  Biso 1.0 Te
Te14 1.0000000000 0.5000000000 0.0000000000 0.8162501745  Biso 1.0 Te
