# AFLOW.org Repositories
# In4Ni1Sr1   [ORCC,ORCC,oS24] (STD_PRIM d
data_In4Ni1Sr1
_pd_phase_name In4Ni1Sr1
_cell_length_a  8.9234002017
_cell_length_b  8.9234002017
_cell_length_c  7.4022367392
_cell_angle_alpha  90.0000000000
_cell_angle_beta  90.0000000000
_cell_angle_gamma  150.7333811327
_symmetry_space_group_name_H-M  'P1'
_symmetry_Int_Tables_Number  1
loop_
_symmetry_equiv_pos_site_id
_symmetry_equiv_pos_as_xyz
  1  x,y,z
loop_
 _atom_site_label
 _atom_site_occupancy
 _atom_site_fract_x
 _atom_site_fract_y
 _atom_site_fract_z
 _atom_site_thermal_displace_type
 _atom_site_B_iso_or_equiv
 _atom_site_type_symbol
In1 1.0000000000 0.3098496283 0.6901503717 0.0499623177  Biso 1.0 In
In2 1.0000000000 0.6901503717 0.3098496283 0.5499623177  Biso 1.0 In
In3 1.0000000000 0.3098496283 0.6901503717 0.4500376823  Biso 1.0 In
In4 1.0000000000 0.6901503717 0.3098496283 0.9500376823  Biso 1.0 In
In5 1.0000000000 0.9230769751 0.0769230249 0.2500000000  Biso 1.0 In
In6 1.0000000000 0.0769230249 0.9230769751 0.7500000000  Biso 1.0 In
In7 1.0000000000 0.5000000000 0.5000000000 0.0000000000  Biso 1.0 In
In8 1.0000000000 0.5000000000 0.5000000000 0.5000000000  Biso 1.0 In
Ni9 1.0000000000 0.7739809889 0.2260190111 0.2500000000  Biso 1.0 Ni
Ni10 1.0000000000 0.2260190111 0.7739809889 0.7500000000  Biso 1.0 Ni
Sr11 1.0000000000 0.1207985322 0.8792014678 0.2500000000  Biso 1.0 Sr
Sr12 1.0000000000 0.8792014678 0.1207985322 0.7500000000  Biso 1.0 Sr
