# AFLOW.org Repositories
# In4Pd1Sr1   [ORCC,ORCC,oS24] (STD_PRIM d
data_In4Pd1Sr1
_pd_phase_name In4Pd1Sr1
_cell_length_a  8.9499595106
_cell_length_b  8.9499595106
_cell_length_c  7.6160782051
_cell_angle_alpha  90.0000000000
_cell_angle_beta  90.0000000000
_cell_angle_gamma  150.2537389722
_symmetry_space_group_name_H-M  'P1'
_symmetry_Int_Tables_Number  1
loop_
_symmetry_equiv_pos_site_id
_symmetry_equiv_pos_as_xyz
  1  x,y,z
loop_
 _atom_site_label
 _atom_site_occupancy
 _atom_site_fract_x
 _atom_site_fract_y
 _atom_site_fract_z
 _atom_site_thermal_displace_type
 _atom_site_B_iso_or_equiv
 _atom_site_type_symbol
In1 1.0000000000 0.6846758299 0.3153241701 0.9488680223  Biso 1.0 In
In2 1.0000000000 0.3153241701 0.6846758299 0.4488680223  Biso 1.0 In
In3 1.0000000000 0.6846758299 0.3153241701 0.5511319777  Biso 1.0 In
In4 1.0000000000 0.3153241701 0.6846758299 0.0511319777  Biso 1.0 In
In5 1.0000000000 0.0698044631 0.9301955369 0.7500000000  Biso 1.0 In
In6 1.0000000000 0.9301955369 0.0698044631 0.2500000000  Biso 1.0 In
In7 1.0000000000 0.5000000000 0.5000000000 0.0000000000  Biso 1.0 In
In8 1.0000000000 0.5000000000 0.5000000000 0.5000000000  Biso 1.0 In
Pd9 1.0000000000 0.2259118921 0.7740881079 0.7500000000  Biso 1.0 Pd
Pd10 1.0000000000 0.7740881079 0.2259118921 0.2500000000  Biso 1.0 Pd
Sr11 1.0000000000 0.8764901612 0.1235098388 0.7500000000  Biso 1.0 Sr
Sr12 1.0000000000 0.1235098388 0.8764901612 0.2500000000  Biso 1.0 Sr
