# AFLOW.org Repositories
# Ir1Mg3   [HEX,HEX,hP24] (STD_PRIM doi:10
data_Ir1Mg3
_pd_phase_name Ir1Mg3
_cell_length_a  7.8751007522
_cell_length_b  7.8751007522
_cell_length_c  8.2091334866
_cell_angle_alpha  90.0000000000
_cell_angle_beta  90.0000000000
_cell_angle_gamma  120.0000000000
_symmetry_space_group_name_H-M  'P1'
_symmetry_Int_Tables_Number  1
loop_
_symmetry_equiv_pos_site_id
_symmetry_equiv_pos_as_xyz
  1  x,y,z
loop_
 _atom_site_label
 _atom_site_occupancy
 _atom_site_fract_x
 _atom_site_fract_y
 _atom_site_fract_z
 _atom_site_thermal_displace_type
 _atom_site_B_iso_or_equiv
 _atom_site_type_symbol
Ir1 1.0000000000 0.0000000000 0.3279645195 0.7409974421  Biso 1.0 Ir
Ir2 1.0000000000 0.6720354805 0.6720354805 0.7409974421  Biso 1.0 Ir
Ir3 1.0000000000 0.3280008520 0.0000000000 0.7409746931  Biso 1.0 Ir
Ir4 1.0000000000 0.0000000000 0.6720354805 0.2409974421  Biso 1.0 Ir
Ir5 1.0000000000 0.3279645195 0.3279645195 0.2409974421  Biso 1.0 Ir
Ir6 1.0000000000 0.6719991480 0.0000000000 0.2409746931  Biso 1.0 Ir
Mg7 1.0000000000 0.0000000000 0.0000000000 0.3059576517  Biso 1.0 Mg
Mg8 1.0000000000 0.0000000000 0.0000000000 0.8059576517  Biso 1.0 Mg
Mg9 1.0000000000 0.6666681496 0.3333405478 0.1975320709  Biso 1.0 Mg
Mg10 1.0000000000 0.3333318504 0.6666594522 0.6975320709  Biso 1.0 Mg
Mg11 1.0000000000 0.6666723983 0.3333405478 0.6975320709  Biso 1.0 Mg
Mg12 1.0000000000 0.3333276017 0.6666594522 0.1975320709  Biso 1.0 Mg
Mg13 1.0000000000 0.0000000000 0.2853667104 0.0703966232  Biso 1.0 Mg
Mg14 1.0000000000 0.7146332896 0.7146332896 0.0703966232  Biso 1.0 Mg
Mg15 1.0000000000 0.2853823885 0.0000000000 0.0703917311  Biso 1.0 Mg
Mg16 1.0000000000 0.0000000000 0.7146332896 0.5703966232  Biso 1.0 Mg
Mg17 1.0000000000 0.2853667104 0.2853667104 0.5703966232  Biso 1.0 Mg
Mg18 1.0000000000 0.7146176115 0.0000000000 0.5703917311  Biso 1.0 Mg
Mg19 1.0000000000 0.0000000000 0.3723992909 0.4125773329  Biso 1.0 Mg
Mg20 1.0000000000 0.6276007091 0.6276007091 0.4125773329  Biso 1.0 Mg
Mg21 1.0000000000 0.3723927198 0.0000000000 0.4125689857  Biso 1.0 Mg
Mg22 1.0000000000 0.0000000000 0.6276007091 0.9125773329  Biso 1.0 Mg
Mg23 1.0000000000 0.3723992909 0.3723992909 0.9125773329  Biso 1.0 Mg
Mg24 1.0000000000 0.6276072802 0.0000000000 0.9125689857  Biso 1.0 Mg
