# AFLOW.org Repositories
# Ir2La1Si2   [TET,TET,tP10] (STD_PRIM doi
data_Ir2La1Si2
_pd_phase_name Ir2La1Si2
_cell_length_a  4.2149958441
_cell_length_b  4.2149958441
_cell_length_c  9.9581122634
_cell_angle_alpha  90.0000000000
_cell_angle_beta  90.0000000000
_cell_angle_gamma  90.0000000000
_symmetry_space_group_name_H-M  'P1'
_symmetry_Int_Tables_Number  1
loop_
_symmetry_equiv_pos_site_id
_symmetry_equiv_pos_as_xyz
  1  x,y,z
loop_
 _atom_site_label
 _atom_site_occupancy
 _atom_site_fract_x
 _atom_site_fract_y
 _atom_site_fract_z
 _atom_site_thermal_displace_type
 _atom_site_B_iso_or_equiv
 _atom_site_type_symbol
Ir1 1.0000000000 0.2500000000 0.2500000000 0.3756898460  Biso 1.0 Ir
Ir2 1.0000000000 0.7500000000 0.7500000000 0.6243101540  Biso 1.0 Ir
Ir3 1.0000000000 0.7500000000 0.2500000000 0.0000000000  Biso 1.0 Ir
Ir4 1.0000000000 0.2500000000 0.7500000000 0.0000000000  Biso 1.0 Ir
La5 1.0000000000 0.2500000000 0.2500000000 0.7444058674  Biso 1.0 La
La6 1.0000000000 0.7500000000 0.7500000000 0.2555941326  Biso 1.0 La
Si7 1.0000000000 0.2500000000 0.2500000000 0.1271556417  Biso 1.0 Si
Si8 1.0000000000 0.7500000000 0.7500000000 0.8728443583  Biso 1.0 Si
Si9 1.0000000000 0.7500000000 0.2500000000 0.5000000000  Biso 1.0 Si
Si10 1.0000000000 0.2500000000 0.7500000000 0.5000000000  Biso 1.0 Si
