# AFLOW.org Repositories
# Ir2S3   [ORC,ORC,oP20] (STD_PRIM doi:10.
data_Ir2S3
_pd_phase_name Ir2S3
_cell_length_a  6.0536149463
_cell_length_b  6.1965151310
_cell_length_c  8.5336135271
_cell_angle_alpha  90.0000000000
_cell_angle_beta  90.0000000000
_cell_angle_gamma  90.0000000000
_symmetry_space_group_name_H-M  'P1'
_symmetry_Int_Tables_Number  1
loop_
_symmetry_equiv_pos_site_id
_symmetry_equiv_pos_as_xyz
  1  x,y,z
loop_
 _atom_site_label
 _atom_site_occupancy
 _atom_site_fract_x
 _atom_site_fract_y
 _atom_site_fract_z
 _atom_site_thermal_displace_type
 _atom_site_B_iso_or_equiv
 _atom_site_type_symbol
Ir1 1.0000000000 0.7490583645 0.9692848754 0.1073153973  Biso 1.0 Ir
Ir2 1.0000000000 0.7509416355 0.4692848754 0.3926846027  Biso 1.0 Ir
Ir3 1.0000000000 0.7490583645 0.5307151246 0.8926846027  Biso 1.0 Ir
Ir4 1.0000000000 0.7509416355 0.0307151246 0.6073153973  Biso 1.0 Ir
Ir5 1.0000000000 0.2509416355 0.0307151246 0.8926846027  Biso 1.0 Ir
Ir6 1.0000000000 0.2490583645 0.5307151246 0.6073153973  Biso 1.0 Ir
Ir7 1.0000000000 0.2509416355 0.4692848754 0.1073153973  Biso 1.0 Ir
Ir8 1.0000000000 0.2490583645 0.9692848754 0.3926846027  Biso 1.0 Ir
S9 1.0000000000 0.6093820801 0.6089471985 0.1498827698  Biso 1.0 S
S10 1.0000000000 0.8906179199 0.1089471985 0.3501172302  Biso 1.0 S
S11 1.0000000000 0.6093820801 0.8910528015 0.8501172302  Biso 1.0 S
S12 1.0000000000 0.8906179199 0.3910528015 0.6498827698  Biso 1.0 S
S13 1.0000000000 0.3906179199 0.3910528015 0.8501172302  Biso 1.0 S
S14 1.0000000000 0.1093820801 0.8910528015 0.6498827698  Biso 1.0 S
S15 1.0000000000 0.3906179199 0.1089471985 0.1498827698  Biso 1.0 S
S16 1.0000000000 0.1093820801 0.6089471985 0.3501172302  Biso 1.0 S
S17 1.0000000000 0.0448910735 0.7500000000 0.0000000000  Biso 1.0 S
S18 1.0000000000 0.4551089265 0.2500000000 0.5000000000  Biso 1.0 S
S19 1.0000000000 0.9551089265 0.2500000000 0.0000000000  Biso 1.0 S
S20 1.0000000000 0.5448910735 0.7500000000 0.5000000000  Biso 1.0 S
