# AFLOW.org Repositories
# Ir3Si1   [BCT,BCT2,tI16] (STD_PRIM doi:1
data_Ir3Si1
_pd_phase_name Ir3Si1
_cell_length_a  5.4508472667
_cell_length_b  5.4508472667
_cell_length_c  5.4508472667
_cell_angle_alpha  122.6290094184
_cell_angle_beta  122.6290094184
_cell_angle_gamma  85.5037115905
_symmetry_space_group_name_H-M  'P1'
_symmetry_Int_Tables_Number  1
loop_
_symmetry_equiv_pos_site_id
_symmetry_equiv_pos_as_xyz
  1  x,y,z
loop_
 _atom_site_label
 _atom_site_occupancy
 _atom_site_fract_x
 _atom_site_fract_y
 _atom_site_fract_z
 _atom_site_thermal_displace_type
 _atom_site_B_iso_or_equiv
 _atom_site_type_symbol
Ir1 1.0000000000 0.7500000000 0.7500000000 0.0000000000  Biso 1.0 Ir
Ir2 1.0000000000 0.2500000000 0.2500000000 0.0000000000  Biso 1.0 Ir
Ir3 1.0000000000 0.3165554001 0.1834445999 0.5000000000  Biso 1.0 Ir
Ir4 1.0000000000 0.6834445999 0.8165554001 0.5000000000  Biso 1.0 Ir
Ir5 1.0000000000 0.8165554001 0.3165554001 0.1331108001  Biso 1.0 Ir
Ir6 1.0000000000 0.1834445999 0.6834445999 0.8668891999  Biso 1.0 Ir
Si7 1.0000000000 0.2500000000 0.7500000000 0.5000000000  Biso 1.0 Si
Si8 1.0000000000 0.7500000000 0.2500000000 0.5000000000  Biso 1.0 Si
