# AFLOW.org Repositories
# Ir4La3Sn13   [CUB,CUB,cP40] (STD_PRIM do
data_Ir4La3Sn13
_pd_phase_name Ir4La3Sn13
_cell_length_a  9.9536859458
_cell_length_b  9.9536859458
_cell_length_c  9.9536859458
_cell_angle_alpha  90.0000000000
_cell_angle_beta  90.0000000000
_cell_angle_gamma  90.0000000000
_symmetry_space_group_name_H-M  'P1'
_symmetry_Int_Tables_Number  1
loop_
_symmetry_equiv_pos_site_id
_symmetry_equiv_pos_as_xyz
  1  x,y,z
loop_
 _atom_site_label
 _atom_site_occupancy
 _atom_site_fract_x
 _atom_site_fract_y
 _atom_site_fract_z
 _atom_site_thermal_displace_type
 _atom_site_B_iso_or_equiv
 _atom_site_type_symbol
Ir1 1.0000000000 0.7500000000 0.7500000000 0.2500000000  Biso 1.0 Ir
Ir2 1.0000000000 0.2500000000 0.2500000000 0.2500000000  Biso 1.0 Ir
Ir3 1.0000000000 0.2500000000 0.7500000000 0.7500000000  Biso 1.0 Ir
Ir4 1.0000000000 0.7500000000 0.2500000000 0.7500000000  Biso 1.0 Ir
Ir5 1.0000000000 0.2500000000 0.2500000000 0.7500000000  Biso 1.0 Ir
Ir6 1.0000000000 0.7500000000 0.7500000000 0.7500000000  Biso 1.0 Ir
Ir7 1.0000000000 0.7500000000 0.2500000000 0.2500000000  Biso 1.0 Ir
Ir8 1.0000000000 0.2500000000 0.7500000000 0.2500000000  Biso 1.0 Ir
La9 1.0000000000 0.7500000000 0.0000000000 0.5000000000  Biso 1.0 La
La10 1.0000000000 0.2500000000 0.0000000000 0.5000000000  Biso 1.0 La
La11 1.0000000000 0.5000000000 0.7500000000 0.0000000000  Biso 1.0 La
La12 1.0000000000 0.5000000000 0.2500000000 0.0000000000  Biso 1.0 La
La13 1.0000000000 0.0000000000 0.5000000000 0.2500000000  Biso 1.0 La
La14 1.0000000000 0.0000000000 0.5000000000 0.7500000000  Biso 1.0 La
Sn15 1.0000000000 0.0000000000 0.0000000000 0.0000000000  Biso 1.0 Sn
Sn16 1.0000000000 0.5000000000 0.5000000000 0.5000000000  Biso 1.0 Sn
Sn17 1.0000000000 0.0000000000 0.8466118018 0.3048572051  Biso 1.0 Sn
Sn18 1.0000000000 0.0000000000 0.1533881982 0.3048572051  Biso 1.0 Sn
Sn19 1.0000000000 0.0000000000 0.8466118018 0.6951427949  Biso 1.0 Sn
Sn20 1.0000000000 0.0000000000 0.1533881982 0.6951427949  Biso 1.0 Sn
Sn21 1.0000000000 0.6951427949 0.0000000000 0.1533881982  Biso 1.0 Sn
Sn22 1.0000000000 0.6951427949 0.0000000000 0.8466118018  Biso 1.0 Sn
Sn23 1.0000000000 0.3048572051 0.0000000000 0.1533881982  Biso 1.0 Sn
Sn24 1.0000000000 0.3048572051 0.0000000000 0.8466118018  Biso 1.0 Sn
Sn25 1.0000000000 0.8466118018 0.6951427949 0.0000000000  Biso 1.0 Sn
Sn26 1.0000000000 0.1533881982 0.6951427949 0.0000000000  Biso 1.0 Sn
Sn27 1.0000000000 0.8466118018 0.3048572051 0.0000000000  Biso 1.0 Sn
Sn28 1.0000000000 0.1533881982 0.3048572051 0.0000000000  Biso 1.0 Sn
Sn29 1.0000000000 0.3466118018 0.5000000000 0.1951427949  Biso 1.0 Sn
Sn30 1.0000000000 0.6533881982 0.5000000000 0.1951427949  Biso 1.0 Sn
Sn31 1.0000000000 0.3466118018 0.5000000000 0.8048572051  Biso 1.0 Sn
Sn32 1.0000000000 0.6533881982 0.5000000000 0.8048572051  Biso 1.0 Sn
Sn33 1.0000000000 0.5000000000 0.1951427949 0.3466118018  Biso 1.0 Sn
Sn34 1.0000000000 0.5000000000 0.1951427949 0.6533881982  Biso 1.0 Sn
Sn35 1.0000000000 0.5000000000 0.8048572051 0.3466118018  Biso 1.0 Sn
Sn36 1.0000000000 0.5000000000 0.8048572051 0.6533881982  Biso 1.0 Sn
Sn37 1.0000000000 0.1951427949 0.3466118018 0.5000000000  Biso 1.0 Sn
Sn38 1.0000000000 0.1951427949 0.6533881982 0.5000000000  Biso 1.0 Sn
Sn39 1.0000000000 0.8048572051 0.3466118018 0.5000000000  Biso 1.0 Sn
Sn40 1.0000000000 0.8048572051 0.6533881982 0.5000000000  Biso 1.0 Sn
