# AFLOW.org Repositories
# K1Li1Se1   [TET,TET,tP6] (STD_PRIM doi:1
data_K1Li1Se1
_pd_phase_name K1Li1Se1
_cell_length_a  4.5254191443
_cell_length_b  4.5254191443
_cell_length_c  7.3421294660
_cell_angle_alpha  90.0000000000
_cell_angle_beta  90.0000000000
_cell_angle_gamma  90.0000000000
_symmetry_space_group_name_H-M  'P1'
_symmetry_Int_Tables_Number  1
loop_
_symmetry_equiv_pos_site_id
_symmetry_equiv_pos_as_xyz
  1  x,y,z
loop_
 _atom_site_label
 _atom_site_occupancy
 _atom_site_fract_x
 _atom_site_fract_y
 _atom_site_fract_z
 _atom_site_thermal_displace_type
 _atom_site_B_iso_or_equiv
 _atom_site_type_symbol
K1 1.0000000000 0.2500000000 0.2500000000 0.6618089235  Biso 1.0 K
K2 1.0000000000 0.7500000000 0.7500000000 0.3381910765  Biso 1.0 K
Li3 1.0000000000 0.7500000000 0.2500000000 0.0000000000  Biso 1.0 Li
Li4 1.0000000000 0.2500000000 0.7500000000 0.0000000000  Biso 1.0 Li
Se5 1.0000000000 0.2500000000 0.2500000000 0.1922767390  Biso 1.0 Se
Se6 1.0000000000 0.7500000000 0.7500000000 0.8077232610  Biso 1.0 Se
