# AFLOW.org Repositories
# K2Te3   [ORC,ORC,oP20] (STD_PRIM doi:10.
data_K2Te3
_pd_phase_name K2Te3
_cell_length_a  4.6454144768
_cell_length_b  10.3936015343
_cell_length_c  15.9954478913
_cell_angle_alpha  90.0000000000
_cell_angle_beta  90.0000000000
_cell_angle_gamma  90.0000000000
_symmetry_space_group_name_H-M  'P1'
_symmetry_Int_Tables_Number  1
loop_
_symmetry_equiv_pos_site_id
_symmetry_equiv_pos_as_xyz
  1  x,y,z
loop_
 _atom_site_label
 _atom_site_occupancy
 _atom_site_fract_x
 _atom_site_fract_y
 _atom_site_fract_z
 _atom_site_thermal_displace_type
 _atom_site_B_iso_or_equiv
 _atom_site_type_symbol
K1 1.0000000000 0.2839933704 0.9723567185 0.3771102299  Biso 1.0 K
K2 1.0000000000 0.7839933704 0.0276432815 0.1228897701  Biso 1.0 K
K3 1.0000000000 0.7160066296 0.4723567185 0.6228897701  Biso 1.0 K
K4 1.0000000000 0.2160066296 0.5276432815 0.8771102299  Biso 1.0 K
K5 1.0000000000 0.7160066296 0.0276432815 0.6228897701  Biso 1.0 K
K6 1.0000000000 0.2160066296 0.9723567185 0.8771102299  Biso 1.0 K
K7 1.0000000000 0.2839933704 0.5276432815 0.3771102299  Biso 1.0 K
K8 1.0000000000 0.7839933704 0.4723567185 0.1228897701  Biso 1.0 K
Te9 1.0000000000 0.8046052245 0.7500000000 0.4803673621  Biso 1.0 Te
Te10 1.0000000000 0.3046052245 0.2500000000 0.0196326379  Biso 1.0 Te
Te11 1.0000000000 0.1953947755 0.2500000000 0.5196326379  Biso 1.0 Te
Te12 1.0000000000 0.6953947755 0.7500000000 0.9803673621  Biso 1.0 Te
Te13 1.0000000000 0.7095204574 0.7500000000 0.2608304263  Biso 1.0 Te
Te14 1.0000000000 0.2095204574 0.2500000000 0.2391695737  Biso 1.0 Te
Te15 1.0000000000 0.2904795426 0.2500000000 0.7391695737  Biso 1.0 Te
Te16 1.0000000000 0.7904795426 0.7500000000 0.7608304263  Biso 1.0 Te
Te17 1.0000000000 0.3113050057 0.7500000000 0.1222845325  Biso 1.0 Te
Te18 1.0000000000 0.8113050057 0.2500000000 0.3777154675  Biso 1.0 Te
Te19 1.0000000000 0.6886949943 0.2500000000 0.8777154675  Biso 1.0 Te
Te20 1.0000000000 0.1886949943 0.7500000000 0.6222845325  Biso 1.0 Te
