# AFLOW.org Repositories
# La1Pt1   [ORCC,ORCC,oS8] (STD_PRIM doi:1
data_La1Pt1
_pd_phase_name La1Pt1
_cell_length_a  5.9334116377
_cell_length_b  5.9334116377
_cell_length_c  4.6193096186
_cell_angle_alpha  90.0000000000
_cell_angle_beta  90.0000000000
_cell_angle_gamma  140.5113494876
_symmetry_space_group_name_H-M  'P1'
_symmetry_Int_Tables_Number  1
loop_
_symmetry_equiv_pos_site_id
_symmetry_equiv_pos_as_xyz
  1  x,y,z
loop_
 _atom_site_label
 _atom_site_occupancy
 _atom_site_fract_x
 _atom_site_fract_y
 _atom_site_fract_z
 _atom_site_thermal_displace_type
 _atom_site_B_iso_or_equiv
 _atom_site_type_symbol
La1 1.0000000000 0.8645878533 0.1354121467 0.7500000000  Biso 1.0 La
La2 1.0000000000 0.1354121467 0.8645878533 0.2500000000  Biso 1.0 La
Pt3 1.0000000000 0.5905576123 0.4094423877 0.7500000000  Biso 1.0 Pt
Pt4 1.0000000000 0.4094423877 0.5905576123 0.2500000000  Biso 1.0 Pt
