# AFLOW.org Repositories
# La1S2   [TET,TET,tP6] (STD_PRIM doi:10.1
data_La1S2
_pd_phase_name La1S2
_cell_length_a  4.0688466800
_cell_length_b  4.0688466800
_cell_length_c  8.4129530529
_cell_angle_alpha  90.0000000000
_cell_angle_beta  90.0000000000
_cell_angle_gamma  90.0000000000
_symmetry_space_group_name_H-M  'P1'
_symmetry_Int_Tables_Number  1
loop_
_symmetry_equiv_pos_site_id
_symmetry_equiv_pos_as_xyz
  1  x,y,z
loop_
 _atom_site_label
 _atom_site_occupancy
 _atom_site_fract_x
 _atom_site_fract_y
 _atom_site_fract_z
 _atom_site_thermal_displace_type
 _atom_site_B_iso_or_equiv
 _atom_site_type_symbol
La1 1.0000000000 0.5000000000 0.0000000000 0.7252310511  Biso 1.0 La
La2 1.0000000000 0.0000000000 0.5000000000 0.2747689489  Biso 1.0 La
S3 1.0000000000 0.5000000000 0.5000000000 0.0000000000  Biso 1.0 S
S4 1.0000000000 0.0000000000 0.0000000000 0.0000000000  Biso 1.0 S
S5 1.0000000000 0.5000000000 0.0000000000 0.3659512841  Biso 1.0 S
S6 1.0000000000 0.0000000000 0.5000000000 0.6340487159  Biso 1.0 S
