# AFLOW.org Repositories
# La2O2S1   [HEX,HEX,hP5] (STD_PRIM doi:10
data_La2O2S1
_pd_phase_name La2O2S1
_cell_length_a  4.1062694503
_cell_length_b  4.1062694503
_cell_length_c  7.0262749591
_cell_angle_alpha  90.0000000000
_cell_angle_beta  90.0000000000
_cell_angle_gamma  120.0000000000
_symmetry_space_group_name_H-M  'P1'
_symmetry_Int_Tables_Number  1
loop_
_symmetry_equiv_pos_site_id
_symmetry_equiv_pos_as_xyz
  1  x,y,z
loop_
 _atom_site_label
 _atom_site_occupancy
 _atom_site_fract_x
 _atom_site_fract_y
 _atom_site_fract_z
 _atom_site_thermal_displace_type
 _atom_site_B_iso_or_equiv
 _atom_site_type_symbol
La1 1.0000000000 0.6666633693 0.3333361429 0.2790345372  Biso 1.0 La
La2 1.0000000000 0.3333366307 0.6666638571 0.7209654628  Biso 1.0 La
O3 1.0000000000 0.6666864815 0.3333136474 0.6291585942  Biso 1.0 O
O4 1.0000000000 0.3333135185 0.6666863526 0.3708414058  Biso 1.0 O
S5 1.0000000000 0.0000000000 0.0000000000 0.0000000000  Biso 1.0 S
