# AFLOW.org Repositories
# La3Te4   [BCC,BCC,cI28] (STD_PRIM doi:10
data_La3Te4
_pd_phase_name La3Te4
_cell_length_a  8.4337695644
_cell_length_b  8.4337695644
_cell_length_c  8.4337695644
_cell_angle_alpha  109.4712206345
_cell_angle_beta  109.4712206345
_cell_angle_gamma  109.4712206345
_symmetry_space_group_name_H-M  'P1'
_symmetry_Int_Tables_Number  1
loop_
_symmetry_equiv_pos_site_id
_symmetry_equiv_pos_as_xyz
  1  x,y,z
loop_
 _atom_site_label
 _atom_site_occupancy
 _atom_site_fract_x
 _atom_site_fract_y
 _atom_site_fract_z
 _atom_site_thermal_displace_type
 _atom_site_B_iso_or_equiv
 _atom_site_type_symbol
La1 1.0000000000 0.1250000000 0.3750000000 0.7500000000  Biso 1.0 La
La2 1.0000000000 0.3750000000 0.1250000000 0.2500000000  Biso 1.0 La
La3 1.0000000000 0.2500000000 0.8750000000 0.6250000000  Biso 1.0 La
La4 1.0000000000 0.7500000000 0.6250000000 0.8750000000  Biso 1.0 La
La5 1.0000000000 0.6250000000 0.7500000000 0.3750000000  Biso 1.0 La
La6 1.0000000000 0.8750000000 0.2500000000 0.1250000000  Biso 1.0 La
Te7 1.0000000000 0.0000000000 0.0000000000 0.8477336909  Biso 1.0 Te
Te8 1.0000000000 0.8477336909 0.5000000000 0.5000000000  Biso 1.0 Te
Te9 1.0000000000 0.5000000000 0.3477336909 0.0000000000  Biso 1.0 Te
Te10 1.0000000000 0.6522663091 0.1522663091 0.6522663091  Biso 1.0 Te
Te11 1.0000000000 0.0000000000 0.0000000000 0.3477336909  Biso 1.0 Te
Te12 1.0000000000 0.3477336909 0.5000000000 0.5000000000  Biso 1.0 Te
Te13 1.0000000000 0.1522663091 0.6522663091 0.1522663091  Biso 1.0 Te
Te14 1.0000000000 0.5000000000 0.8477336909 0.0000000000  Biso 1.0 Te
