# AFLOW.org Repositories
# La5Si3   [BCT,BCT2,tI32] (STD_PRIM doi:1
data_La5Si3
_pd_phase_name La5Si3
_cell_length_a  9.0778220522
_cell_length_b  9.0778220522
_cell_length_c  9.0778220522
_cell_angle_alpha  127.3672318711
_cell_angle_beta  127.3672318711
_cell_angle_gamma  77.6523535853
_symmetry_space_group_name_H-M  'P1'
_symmetry_Int_Tables_Number  1
loop_
_symmetry_equiv_pos_site_id
_symmetry_equiv_pos_as_xyz
  1  x,y,z
loop_
 _atom_site_label
 _atom_site_occupancy
 _atom_site_fract_x
 _atom_site_fract_y
 _atom_site_fract_z
 _atom_site_thermal_displace_type
 _atom_site_B_iso_or_equiv
 _atom_site_type_symbol
La1 1.0000000000 0.0000000000 0.0000000000 0.0000000000  Biso 1.0 La
La2 1.0000000000 0.5000000000 0.5000000000 0.0000000000  Biso 1.0 La
La3 1.0000000000 0.3247415427 0.4680751203 0.5000000000  Biso 1.0 La
La4 1.0000000000 0.9680751203 0.8247415427 0.5000000000  Biso 1.0 La
La5 1.0000000000 0.4680751203 0.9680751203 0.1433335777  Biso 1.0 La
La6 1.0000000000 0.8247415427 0.3247415427 0.8566664223  Biso 1.0 La
La7 1.0000000000 0.1752584573 0.6752584573 0.1433335777  Biso 1.0 La
La8 1.0000000000 0.5319248797 0.0319248797 0.8566664223  Biso 1.0 La
La9 1.0000000000 0.0319248797 0.1752584573 0.5000000000  Biso 1.0 La
La10 1.0000000000 0.6752584573 0.5319248797 0.5000000000  Biso 1.0 La
Si11 1.0000000000 0.2500000000 0.2500000000 0.0000000000  Biso 1.0 Si
Si12 1.0000000000 0.7500000000 0.7500000000 0.0000000000  Biso 1.0 Si
Si13 1.0000000000 0.3873001811 0.1126998189 0.5000000000  Biso 1.0 Si
Si14 1.0000000000 0.6126998189 0.8873001811 0.5000000000  Biso 1.0 Si
Si15 1.0000000000 0.1126998189 0.6126998189 0.7253996379  Biso 1.0 Si
Si16 1.0000000000 0.8873001811 0.3873001811 0.2746003621  Biso 1.0 Si
