# AFLOW.org Repositories
# Li1Mn1O2   [BCT,BCT2,tI32] (STD_PRIM doi
data_Li1Mn1O2
_pd_phase_name Li1Mn1O2
_cell_length_a  6.1936367181
_cell_length_b  6.1936367181
_cell_length_c  6.1936367181
_cell_angle_alpha  124.4687706345
_cell_angle_beta  124.4687706345
_cell_angle_gamma  82.4197957145
_symmetry_space_group_name_H-M  'P1'
_symmetry_Int_Tables_Number  1
loop_
_symmetry_equiv_pos_site_id
_symmetry_equiv_pos_as_xyz
  1  x,y,z
loop_
 _atom_site_label
 _atom_site_occupancy
 _atom_site_fract_x
 _atom_site_fract_y
 _atom_site_fract_z
 _atom_site_thermal_displace_type
 _atom_site_B_iso_or_equiv
 _atom_site_type_symbol
Li1 1.0000000000 0.5000000000 0.5000000000 0.0000000000  Biso 1.0 Li
Li2 1.0000000000 0.5000000000 0.0000000000 0.5000000000  Biso 1.0 Li
Li3 1.0000000000 0.0000000000 0.5000000000 0.0000000000  Biso 1.0 Li
Li4 1.0000000000 0.5000000000 0.5000000000 0.5000000000  Biso 1.0 Li
Mn5 1.0000000000 0.0000000000 0.0000000000 0.0000000000  Biso 1.0 Mn
Mn6 1.0000000000 0.0000000000 0.5000000000 0.5000000000  Biso 1.0 Mn
Mn7 1.0000000000 0.5000000000 0.0000000000 0.0000000000  Biso 1.0 Mn
Mn8 1.0000000000 0.0000000000 0.0000000000 0.5000000000  Biso 1.0 Mn
O9 1.0000000000 0.7491381321 0.2297641894 0.4806260574  Biso 1.0 O
O10 1.0000000000 0.7491381321 0.7685120747 0.0193739426  Biso 1.0 O
O11 1.0000000000 0.7685120747 0.7491381321 0.5193739426  Biso 1.0 O
O12 1.0000000000 0.2297641894 0.7491381321 0.9806260574  Biso 1.0 O
O13 1.0000000000 0.2508618679 0.2314879253 0.9806260574  Biso 1.0 O
O14 1.0000000000 0.2508618679 0.7702358106 0.5193739426  Biso 1.0 O
O15 1.0000000000 0.2314879253 0.2508618679 0.4806260574  Biso 1.0 O
O16 1.0000000000 0.7702358106 0.2508618679 0.0193739426  Biso 1.0 O
