# AFLOW.org Repositories
# Li1Sb1Zn1   [HEX,HEX,hP6] (STD_PRIM doi:
data_Li1Sb1Zn1
_pd_phase_name Li1Sb1Zn1
_cell_length_a  4.4484245023
_cell_length_b  4.4484245023
_cell_length_c  7.1831831177
_cell_angle_alpha  90.0000000000
_cell_angle_beta  90.0000000000
_cell_angle_gamma  120.0000000000
_symmetry_space_group_name_H-M  'P1'
_symmetry_Int_Tables_Number  1
loop_
_symmetry_equiv_pos_site_id
_symmetry_equiv_pos_as_xyz
  1  x,y,z
loop_
 _atom_site_label
 _atom_site_occupancy
 _atom_site_fract_x
 _atom_site_fract_y
 _atom_site_fract_z
 _atom_site_thermal_displace_type
 _atom_site_B_iso_or_equiv
 _atom_site_type_symbol
Li1 1.0000000000 0.0000000000 0.0000000000 0.1809934908  Biso 1.0 Li
Li2 1.0000000000 0.0000000000 0.0000000000 0.6809934908  Biso 1.0 Li
Sb3 1.0000000000 0.3333299915 0.6666649958 0.3920804774  Biso 1.0 Sb
Sb4 1.0000000000 0.6666700085 0.3333350042 0.8920804774  Biso 1.0 Sb
Zn5 1.0000000000 0.3333442023 0.6666721012 0.0079260318  Biso 1.0 Zn
Zn6 1.0000000000 0.6666557977 0.3333278988 0.5079260318  Biso 1.0 Zn
