# AFLOW.org Repositories
# Li23Sr6   [FCC,FCC,cF116] (STD_PRIM doi:
data_Li23Sr6
_pd_phase_name Li23Sr6
_cell_length_a  10.4542023607
_cell_length_b  10.4542023607
_cell_length_c  10.4542023607
_cell_angle_alpha  60.0000000000
_cell_angle_beta  60.0000000000
_cell_angle_gamma  60.0000000000
_symmetry_space_group_name_H-M  'P1'
_symmetry_Int_Tables_Number  1
loop_
_symmetry_equiv_pos_site_id
_symmetry_equiv_pos_as_xyz
  1  x,y,z
loop_
 _atom_site_label
 _atom_site_occupancy
 _atom_site_fract_x
 _atom_site_fract_y
 _atom_site_fract_z
 _atom_site_thermal_displace_type
 _atom_site_B_iso_or_equiv
 _atom_site_type_symbol
Li1 1.0000000000 0.5000000000 0.5000000000 0.5000000000  Biso 1.0 Li
Li2 1.0000000000 0.3786482419 0.3786482419 0.3786482419  Biso 1.0 Li
Li3 1.0000000000 0.8640552742 0.3786482419 0.3786482419  Biso 1.0 Li
Li4 1.0000000000 0.3786482419 0.3786482419 0.8640552742  Biso 1.0 Li
Li5 1.0000000000 0.3786482419 0.8640552742 0.3786482419  Biso 1.0 Li
Li6 1.0000000000 0.1359447258 0.6213517581 0.6213517581  Biso 1.0 Li
Li7 1.0000000000 0.6213517581 0.6213517581 0.6213517581  Biso 1.0 Li
Li8 1.0000000000 0.6213517581 0.6213517581 0.1359447258  Biso 1.0 Li
Li9 1.0000000000 0.6213517581 0.1359447258 0.6213517581  Biso 1.0 Li
Li10 1.0000000000 0.1777119388 0.1777119388 0.1777119388  Biso 1.0 Li
Li11 1.0000000000 0.4668641836 0.1777119388 0.1777119388  Biso 1.0 Li
Li12 1.0000000000 0.1777119388 0.1777119388 0.4668641836  Biso 1.0 Li
Li13 1.0000000000 0.1777119388 0.4668641836 0.1777119388  Biso 1.0 Li
Li14 1.0000000000 0.5331358164 0.8222880612 0.8222880612  Biso 1.0 Li
Li15 1.0000000000 0.8222880612 0.8222880612 0.8222880612  Biso 1.0 Li
Li16 1.0000000000 0.8222880612 0.8222880612 0.5331358164  Biso 1.0 Li
Li17 1.0000000000 0.8222880612 0.5331358164 0.8222880612  Biso 1.0 Li
Li18 1.0000000000 0.0000000000 0.5000000000 0.0000000000  Biso 1.0 Li
Li19 1.0000000000 0.5000000000 0.0000000000 0.5000000000  Biso 1.0 Li
Li20 1.0000000000 0.0000000000 0.0000000000 0.5000000000  Biso 1.0 Li
Li21 1.0000000000 0.5000000000 0.5000000000 0.0000000000  Biso 1.0 Li
Li22 1.0000000000 0.5000000000 0.0000000000 0.0000000000  Biso 1.0 Li
Li23 1.0000000000 0.0000000000 0.5000000000 0.5000000000  Biso 1.0 Li
Sr24 1.0000000000 0.2056978734 0.7943021266 0.2056978734  Biso 1.0 Sr
Sr25 1.0000000000 0.7943021266 0.2056978734 0.7943021266  Biso 1.0 Sr
Sr26 1.0000000000 0.2056978734 0.2056978734 0.7943021266  Biso 1.0 Sr
Sr27 1.0000000000 0.7943021266 0.7943021266 0.2056978734  Biso 1.0 Sr
Sr28 1.0000000000 0.7943021266 0.2056978734 0.2056978734  Biso 1.0 Sr
Sr29 1.0000000000 0.2056978734 0.7943021266 0.7943021266  Biso 1.0 Sr
