# AFLOW.org Repositories
# Li2Mg1Si1   [CUB,CUB,cP16] (STD_PRIM doi
data_Li2Mg1Si1
_pd_phase_name Li2Mg1Si1
_cell_length_a  6.3577647035
_cell_length_b  6.3577647035
_cell_length_c  6.3577647035
_cell_angle_alpha  90.0000000000
_cell_angle_beta  90.0000000000
_cell_angle_gamma  90.0000000000
_symmetry_space_group_name_H-M  'P1'
_symmetry_Int_Tables_Number  1
loop_
_symmetry_equiv_pos_site_id
_symmetry_equiv_pos_as_xyz
  1  x,y,z
loop_
 _atom_site_label
 _atom_site_occupancy
 _atom_site_fract_x
 _atom_site_fract_y
 _atom_site_fract_z
 _atom_site_thermal_displace_type
 _atom_site_B_iso_or_equiv
 _atom_site_type_symbol
Li1 1.0000000000 0.5000000000 0.5000000000 0.5000000000  Biso 1.0 Li
Li2 1.0000000000 0.0000000000 0.5000000000 0.5000000000  Biso 1.0 Li
Li3 1.0000000000 0.5000000000 0.0000000000 0.5000000000  Biso 1.0 Li
Li4 1.0000000000 0.5000000000 0.5000000000 0.0000000000  Biso 1.0 Li
Li5 1.0000000000 0.2735280570 0.2735280570 0.7264719430  Biso 1.0 Li
Li6 1.0000000000 0.7264719430 0.7264719430 0.7264719430  Biso 1.0 Li
Li7 1.0000000000 0.7264719430 0.2735280570 0.2735280570  Biso 1.0 Li
Li8 1.0000000000 0.2735280570 0.7264719430 0.2735280570  Biso 1.0 Li
Mg9 1.0000000000 0.0000000000 0.0000000000 0.0000000000  Biso 1.0 Mg
Mg10 1.0000000000 0.5000000000 0.0000000000 0.0000000000  Biso 1.0 Mg
Mg11 1.0000000000 0.0000000000 0.5000000000 0.0000000000  Biso 1.0 Mg
Mg12 1.0000000000 0.0000000000 0.0000000000 0.5000000000  Biso 1.0 Mg
Si13 1.0000000000 0.7466884237 0.7466884237 0.2533115763  Biso 1.0 Si
Si14 1.0000000000 0.2533115763 0.2533115763 0.2533115763  Biso 1.0 Si
Si15 1.0000000000 0.2533115763 0.7466884237 0.7466884237  Biso 1.0 Si
Si16 1.0000000000 0.7466884237 0.2533115763 0.7466884237  Biso 1.0 Si
