# AFLOW.org Repositories
# Mg1Mo1N2   [HEX,HEX,hP8] (STD_PRIM doi:1
data_Mg1Mo1N2
_pd_phase_name Mg1Mo1N2
_cell_length_a  2.9410327252
_cell_length_b  2.9410327252
_cell_length_c  10.6302099864
_cell_angle_alpha  90.0000000000
_cell_angle_beta  90.0000000000
_cell_angle_gamma  120.0000000000
_symmetry_space_group_name_H-M  'P1'
_symmetry_Int_Tables_Number  1
loop_
_symmetry_equiv_pos_site_id
_symmetry_equiv_pos_as_xyz
  1  x,y,z
loop_
 _atom_site_label
 _atom_site_occupancy
 _atom_site_fract_x
 _atom_site_fract_y
 _atom_site_fract_z
 _atom_site_thermal_displace_type
 _atom_site_B_iso_or_equiv
 _atom_site_type_symbol
Mg1 1.0000000000 0.0000000000 0.0000000000 0.0000000000  Biso 1.0 Mg
Mg2 1.0000000000 0.0000000000 0.0000000000 0.5000000000  Biso 1.0 Mg
Mo3 1.0000000000 0.6666657936 0.3333315872 0.7500000000  Biso 1.0 Mo
Mo4 1.0000000000 0.3333342064 0.6666684128 0.2500000000  Biso 1.0 Mo
N5 1.0000000000 0.6666675558 0.3333351116 0.1273117772  Biso 1.0 N
N6 1.0000000000 0.3333324442 0.6666648884 0.6273117772  Biso 1.0 N
N7 1.0000000000 0.3333324442 0.6666648884 0.8726882228  Biso 1.0 N
N8 1.0000000000 0.6666675558 0.3333351116 0.3726882228  Biso 1.0 N
