# AFLOW.org Repositories
# Mg1O6Pt3   [ORCC,ORCC,oS20] (STD_PRIM do
data_Mg1O6Pt3
_pd_phase_name Mg1O6Pt3
_cell_length_a  6.1667028017
_cell_length_b  6.1667028017
_cell_length_c  3.2072178401
_cell_angle_alpha  90.0000000000
_cell_angle_beta  90.0000000000
_cell_angle_gamma  108.7171479160
_symmetry_space_group_name_H-M  'P1'
_symmetry_Int_Tables_Number  1
loop_
_symmetry_equiv_pos_site_id
_symmetry_equiv_pos_as_xyz
  1  x,y,z
loop_
 _atom_site_label
 _atom_site_occupancy
 _atom_site_fract_x
 _atom_site_fract_y
 _atom_site_fract_z
 _atom_site_thermal_displace_type
 _atom_site_B_iso_or_equiv
 _atom_site_type_symbol
Mg1 1.0000000000 0.5000000000 0.5000000000 0.0000000000  Biso 1.0 Mg
O2 1.0000000000 0.6486262947 0.3513737053 0.5000000000  Biso 1.0 O
O3 1.0000000000 0.3513737053 0.6486262947 0.5000000000  Biso 1.0 O
O4 1.0000000000 0.6601442287 0.9139080047 0.0000000000  Biso 1.0 O
O5 1.0000000000 0.3398557713 0.0860919953 0.0000000000  Biso 1.0 O
O6 1.0000000000 0.0860919953 0.3398557713 0.0000000000  Biso 1.0 O
O7 1.0000000000 0.9139080047 0.6601442287 0.0000000000  Biso 1.0 O
Pt8 1.0000000000 0.0000000000 0.0000000000 0.0000000000  Biso 1.0 Pt
Pt9 1.0000000000 0.5000000000 0.0000000000 0.5000000000  Biso 1.0 Pt
Pt10 1.0000000000 0.0000000000 0.5000000000 0.5000000000  Biso 1.0 Pt
