# AFLOW.org Repositories
# Mg1O1   [ORCI,ORCI,oI32] (STD_PRIM doi:1
data_Mg1O1
_pd_phase_name Mg1O1
_cell_length_a  8.1779946436
_cell_length_b  8.1779946436
_cell_length_c  8.1779946436
_cell_angle_alpha  150.1777822853
_cell_angle_beta  135.3257357939
_cell_angle_gamma  54.6416819217
_symmetry_space_group_name_H-M  'P1'
_symmetry_Int_Tables_Number  1
loop_
_symmetry_equiv_pos_site_id
_symmetry_equiv_pos_as_xyz
  1  x,y,z
loop_
 _atom_site_label
 _atom_site_occupancy
 _atom_site_fract_x
 _atom_site_fract_y
 _atom_site_fract_z
 _atom_site_thermal_displace_type
 _atom_site_B_iso_or_equiv
 _atom_site_type_symbol
Mg1 1.0000000000 0.4054603092 0.5708372149 0.8346230943  Biso 1.0 Mg
Mg2 1.0000000000 0.5945396908 0.4291627851 0.1653769057  Biso 1.0 Mg
Mg3 1.0000000000 0.2637858794 0.9291627851 0.3346230943  Biso 1.0 Mg
Mg4 1.0000000000 0.7362141206 0.0708372149 0.6653769057  Biso 1.0 Mg
Mg5 1.0000000000 0.3536772879 0.1898493796 0.1638279083  Biso 1.0 Mg
Mg6 1.0000000000 0.6463227121 0.8101506204 0.8361720917  Biso 1.0 Mg
Mg7 1.0000000000 0.9739785287 0.3101506204 0.6638279083  Biso 1.0 Mg
Mg8 1.0000000000 0.0260214713 0.6898493796 0.3361720917  Biso 1.0 Mg
O9 1.0000000000 0.3541416003 0.6900000383 0.6641415621  Biso 1.0 O
O10 1.0000000000 0.6458583997 0.3099999617 0.3358584379  Biso 1.0 O
O11 1.0000000000 0.9741415238 0.8099999617 0.1641415621  Biso 1.0 O
O12 1.0000000000 0.0258584762 0.1900000383 0.8358584379  Biso 1.0 O
O13 1.0000000000 0.4010198921 0.0708167485 0.3302031437  Biso 1.0 O
O14 1.0000000000 0.5989801079 0.9291832515 0.6697968563  Biso 1.0 O
O15 1.0000000000 0.2593863952 0.4291832515 0.8302031437  Biso 1.0 O
O16 1.0000000000 0.7406136048 0.5708167485 0.1697968563  Biso 1.0 O
