# AFLOW.org Repositories
# Mg1O2   [CUB,CUB,cP12] (STD_PRIM doi:10.
data_Mg1O2
_pd_phase_name Mg1O2
_cell_length_a  4.8975920832
_cell_length_b  4.8975920832
_cell_length_c  4.8975920832
_cell_angle_alpha  90.0000000000
_cell_angle_beta  90.0000000000
_cell_angle_gamma  90.0000000000
_symmetry_space_group_name_H-M  'P1'
_symmetry_Int_Tables_Number  1
loop_
_symmetry_equiv_pos_site_id
_symmetry_equiv_pos_as_xyz
  1  x,y,z
loop_
 _atom_site_label
 _atom_site_occupancy
 _atom_site_fract_x
 _atom_site_fract_y
 _atom_site_fract_z
 _atom_site_thermal_displace_type
 _atom_site_B_iso_or_equiv
 _atom_site_type_symbol
Mg1 1.0000000000 0.5000000000 0.5000000000 0.5000000000  Biso 1.0 Mg
Mg2 1.0000000000 0.0000000000 0.5000000000 0.0000000000  Biso 1.0 Mg
Mg3 1.0000000000 0.5000000000 0.0000000000 0.0000000000  Biso 1.0 Mg
Mg4 1.0000000000 0.0000000000 0.0000000000 0.5000000000  Biso 1.0 Mg
O5 1.0000000000 0.9111961077 0.9111961077 0.0888038923  Biso 1.0 O
O6 1.0000000000 0.5888038923 0.0888038923 0.5888038923  Biso 1.0 O
O7 1.0000000000 0.0888038923 0.4111961077 0.4111961077  Biso 1.0 O
O8 1.0000000000 0.4111961077 0.5888038923 0.9111961077  Biso 1.0 O
O9 1.0000000000 0.0888038923 0.0888038923 0.9111961077  Biso 1.0 O
O10 1.0000000000 0.4111961077 0.9111961077 0.4111961077  Biso 1.0 O
O11 1.0000000000 0.9111961077 0.5888038923 0.5888038923  Biso 1.0 O
O12 1.0000000000 0.5888038923 0.4111961077 0.0888038923  Biso 1.0 O
