# AFLOW.org Repositories
# Mg3P2   [BCC,BCC,cI80] (STD_PRIM doi:10.
data_Mg3P2
_pd_phase_name Mg3P2
_cell_length_a  10.4466406411
_cell_length_b  10.4466406411
_cell_length_c  10.4466406411
_cell_angle_alpha  109.4712206345
_cell_angle_beta  109.4712206345
_cell_angle_gamma  109.4712206345
_symmetry_space_group_name_H-M  'P1'
_symmetry_Int_Tables_Number  1
loop_
_symmetry_equiv_pos_site_id
_symmetry_equiv_pos_as_xyz
  1  x,y,z
loop_
 _atom_site_label
 _atom_site_occupancy
 _atom_site_fract_x
 _atom_site_fract_y
 _atom_site_fract_z
 _atom_site_thermal_displace_type
 _atom_site_B_iso_or_equiv
 _atom_site_type_symbol
Mg1 1.0000000000 0.4675021715 0.2336199906 0.9935361053  Biso 1.0 Mg
Mg2 1.0000000000 0.0324978285 0.0260339338 0.7661178191  Biso 1.0 Mg
Mg3 1.0000000000 0.7400838853 0.4739660662 0.5064638947  Biso 1.0 Mg
Mg4 1.0000000000 0.7599161147 0.2663800094 0.7338821809  Biso 1.0 Mg
Mg5 1.0000000000 0.2338821809 0.7599161147 0.7663800094  Biso 1.0 Mg
Mg6 1.0000000000 0.0064638947 0.7400838853 0.9739660662  Biso 1.0 Mg
Mg7 1.0000000000 0.2661178191 0.0324978285 0.5260339338  Biso 1.0 Mg
Mg8 1.0000000000 0.4935361053 0.4675021715 0.7336199906  Biso 1.0 Mg
Mg9 1.0000000000 0.4739660662 0.0064638947 0.2400838853  Biso 1.0 Mg
Mg10 1.0000000000 0.2663800094 0.2338821809 0.2599161147  Biso 1.0 Mg
Mg11 1.0000000000 0.2336199906 0.4935361053 0.9675021715  Biso 1.0 Mg
Mg12 1.0000000000 0.0260339338 0.2661178191 0.5324978285  Biso 1.0 Mg
Mg13 1.0000000000 0.5324978285 0.7663800094 0.0064638947  Biso 1.0 Mg
Mg14 1.0000000000 0.9675021715 0.9739660662 0.2338821809  Biso 1.0 Mg
Mg15 1.0000000000 0.2599161147 0.5260339338 0.4935361053  Biso 1.0 Mg
Mg16 1.0000000000 0.2400838853 0.7336199906 0.2661178191  Biso 1.0 Mg
Mg17 1.0000000000 0.7661178191 0.2400838853 0.2336199906  Biso 1.0 Mg
Mg18 1.0000000000 0.9935361053 0.2599161147 0.0260339338  Biso 1.0 Mg
Mg19 1.0000000000 0.7338821809 0.9675021715 0.4739660662  Biso 1.0 Mg
Mg20 1.0000000000 0.5064638947 0.5324978285 0.2663800094  Biso 1.0 Mg
Mg21 1.0000000000 0.5260339338 0.9935361053 0.7599161147  Biso 1.0 Mg
Mg22 1.0000000000 0.7336199906 0.7661178191 0.7400838853  Biso 1.0 Mg
Mg23 1.0000000000 0.7663800094 0.5064638947 0.0324978285  Biso 1.0 Mg
Mg24 1.0000000000 0.9739660662 0.7338821809 0.4675021715  Biso 1.0 Mg
P25 1.0000000000 0.5000000000 0.0000000000 0.0000000000  Biso 1.0 P
P26 1.0000000000 0.0000000000 0.0000000000 0.5000000000  Biso 1.0 P
P27 1.0000000000 0.5000000000 0.5000000000 0.5000000000  Biso 1.0 P
P28 1.0000000000 0.0000000000 0.5000000000 0.0000000000  Biso 1.0 P
P29 1.0000000000 0.0236494894 0.2500000000 0.2736494894  Biso 1.0 P
P30 1.0000000000 0.4763505106 0.7500000000 0.2263505106  Biso 1.0 P
P31 1.0000000000 0.7736494894 0.0236494894 0.7500000000  Biso 1.0 P
P32 1.0000000000 0.7263505106 0.4763505106 0.2500000000  Biso 1.0 P
P33 1.0000000000 0.7500000000 0.7263505106 0.9763505106  Biso 1.0 P
P34 1.0000000000 0.2500000000 0.7736494894 0.5236494894  Biso 1.0 P
P35 1.0000000000 0.9763505106 0.7500000000 0.7263505106  Biso 1.0 P
P36 1.0000000000 0.5236494894 0.2500000000 0.7736494894  Biso 1.0 P
P37 1.0000000000 0.2263505106 0.9763505106 0.2500000000  Biso 1.0 P
P38 1.0000000000 0.2736494894 0.5236494894 0.7500000000  Biso 1.0 P
P39 1.0000000000 0.2500000000 0.2736494894 0.0236494894  Biso 1.0 P
P40 1.0000000000 0.7500000000 0.2263505106 0.4763505106  Biso 1.0 P
