# AFLOW.org Repositories
# Mg3Sb2   [BCC,BCC,cI80] (STD_PRIM doi:10
data_Mg3Sb2
_pd_phase_name Mg3Sb2
_cell_length_a  11.6177336692
_cell_length_b  11.6177336692
_cell_length_c  11.6177336692
_cell_angle_alpha  109.4712206345
_cell_angle_beta  109.4712206345
_cell_angle_gamma  109.4712206345
_symmetry_space_group_name_H-M  'P1'
_symmetry_Int_Tables_Number  1
loop_
_symmetry_equiv_pos_site_id
_symmetry_equiv_pos_as_xyz
  1  x,y,z
loop_
 _atom_site_label
 _atom_site_occupancy
 _atom_site_fract_x
 _atom_site_fract_y
 _atom_site_fract_z
 _atom_site_thermal_displace_type
 _atom_site_B_iso_or_equiv
 _atom_site_type_symbol
Mg1 1.0000000000 0.4789767476 0.2386951659 0.9942754003  Biso 1.0 Mg
Mg2 1.0000000000 0.0210232524 0.0152986527 0.7597184183  Biso 1.0 Mg
Mg3 1.0000000000 0.7444197656 0.4847013473 0.5057245997  Biso 1.0 Mg
Mg4 1.0000000000 0.7555802344 0.2613048341 0.7402815817  Biso 1.0 Mg
Mg5 1.0000000000 0.2402815817 0.7555802344 0.7613048341  Biso 1.0 Mg
Mg6 1.0000000000 0.0057245997 0.7444197656 0.9847013473  Biso 1.0 Mg
Mg7 1.0000000000 0.2597184183 0.0210232524 0.5152986527  Biso 1.0 Mg
Mg8 1.0000000000 0.4942754003 0.4789767476 0.7386951659  Biso 1.0 Mg
Mg9 1.0000000000 0.4847013473 0.0057245997 0.2444197656  Biso 1.0 Mg
Mg10 1.0000000000 0.2613048341 0.2402815817 0.2555802344  Biso 1.0 Mg
Mg11 1.0000000000 0.2386951659 0.4942754003 0.9789767476  Biso 1.0 Mg
Mg12 1.0000000000 0.0152986527 0.2597184183 0.5210232524  Biso 1.0 Mg
Mg13 1.0000000000 0.5210232524 0.7613048341 0.0057245997  Biso 1.0 Mg
Mg14 1.0000000000 0.9789767476 0.9847013473 0.2402815817  Biso 1.0 Mg
Mg15 1.0000000000 0.2555802344 0.5152986527 0.4942754003  Biso 1.0 Mg
Mg16 1.0000000000 0.2444197656 0.7386951659 0.2597184183  Biso 1.0 Mg
Mg17 1.0000000000 0.7597184183 0.2444197656 0.2386951659  Biso 1.0 Mg
Mg18 1.0000000000 0.9942754003 0.2555802344 0.0152986527  Biso 1.0 Mg
Mg19 1.0000000000 0.7402815817 0.9789767476 0.4847013473  Biso 1.0 Mg
Mg20 1.0000000000 0.5057245997 0.5210232524 0.2613048341  Biso 1.0 Mg
Mg21 1.0000000000 0.5152986527 0.9942754003 0.7555802344  Biso 1.0 Mg
Mg22 1.0000000000 0.7386951659 0.7597184183 0.7444197656  Biso 1.0 Mg
Mg23 1.0000000000 0.7613048341 0.5057245997 0.0210232524  Biso 1.0 Mg
Mg24 1.0000000000 0.9847013473 0.7402815817 0.4789767476  Biso 1.0 Mg
Sb25 1.0000000000 0.5000000000 0.0000000000 0.0000000000  Biso 1.0 Sb
Sb26 1.0000000000 0.0000000000 0.0000000000 0.5000000000  Biso 1.0 Sb
Sb27 1.0000000000 0.5000000000 0.5000000000 0.5000000000  Biso 1.0 Sb
Sb28 1.0000000000 0.0000000000 0.5000000000 0.0000000000  Biso 1.0 Sb
Sb29 1.0000000000 0.0143518307 0.2500000000 0.2643518307  Biso 1.0 Sb
Sb30 1.0000000000 0.4856481693 0.7500000000 0.2356481693  Biso 1.0 Sb
Sb31 1.0000000000 0.7643518307 0.0143518307 0.7500000000  Biso 1.0 Sb
Sb32 1.0000000000 0.7356481693 0.4856481693 0.2500000000  Biso 1.0 Sb
Sb33 1.0000000000 0.7500000000 0.7356481693 0.9856481693  Biso 1.0 Sb
Sb34 1.0000000000 0.2500000000 0.7643518307 0.5143518307  Biso 1.0 Sb
Sb35 1.0000000000 0.9856481693 0.7500000000 0.7356481693  Biso 1.0 Sb
Sb36 1.0000000000 0.5143518307 0.2500000000 0.7643518307  Biso 1.0 Sb
Sb37 1.0000000000 0.2356481693 0.9856481693 0.2500000000  Biso 1.0 Sb
Sb38 1.0000000000 0.2643518307 0.5143518307 0.7500000000  Biso 1.0 Sb
Sb39 1.0000000000 0.2500000000 0.2643518307 0.0143518307  Biso 1.0 Sb
Sb40 1.0000000000 0.7500000000 0.2356481693 0.4856481693  Biso 1.0 Sb
