# AFLOW.org Repositories
# Mg4P6Rh7   [BCC,BCC,cI34] (STD_PRIM doi:
data_Mg4P6Rh7
_pd_phase_name Mg4P6Rh7
_cell_length_a  6.8200190467
_cell_length_b  6.8200190467
_cell_length_c  6.8200190467
_cell_angle_alpha  109.4712206345
_cell_angle_beta  109.4712206345
_cell_angle_gamma  109.4712206345
_symmetry_space_group_name_H-M  'P1'
_symmetry_Int_Tables_Number  1
loop_
_symmetry_equiv_pos_site_id
_symmetry_equiv_pos_as_xyz
  1  x,y,z
loop_
 _atom_site_label
 _atom_site_occupancy
 _atom_site_fract_x
 _atom_site_fract_y
 _atom_site_fract_z
 _atom_site_thermal_displace_type
 _atom_site_B_iso_or_equiv
 _atom_site_type_symbol
Mg1 1.0000000000 0.0000000000 0.5000000000 0.0000000000  Biso 1.0 Mg
Mg2 1.0000000000 0.0000000000 0.0000000000 0.5000000000  Biso 1.0 Mg
Mg3 1.0000000000 0.5000000000 0.5000000000 0.5000000000  Biso 1.0 Mg
Mg4 1.0000000000 0.5000000000 0.0000000000 0.0000000000  Biso 1.0 Mg
P5 1.0000000000 0.3190348523 0.3190348523 0.0000000000  Biso 1.0 P
P6 1.0000000000 0.6809651477 0.6809651477 0.0000000000  Biso 1.0 P
P7 1.0000000000 0.6809651477 0.0000000000 0.6809651477  Biso 1.0 P
P8 1.0000000000 0.3190348523 0.0000000000 0.3190348523  Biso 1.0 P
P9 1.0000000000 0.0000000000 0.3190348523 0.3190348523  Biso 1.0 P
P10 1.0000000000 0.0000000000 0.6809651477 0.6809651477  Biso 1.0 P
Rh11 1.0000000000 0.2500000000 0.7500000000 0.5000000000  Biso 1.0 Rh
Rh12 1.0000000000 0.7500000000 0.2500000000 0.5000000000  Biso 1.0 Rh
Rh13 1.0000000000 0.2500000000 0.5000000000 0.7500000000  Biso 1.0 Rh
Rh14 1.0000000000 0.7500000000 0.5000000000 0.2500000000  Biso 1.0 Rh
Rh15 1.0000000000 0.5000000000 0.2500000000 0.7500000000  Biso 1.0 Rh
Rh16 1.0000000000 0.5000000000 0.7500000000 0.2500000000  Biso 1.0 Rh
Rh17 1.0000000000 0.0000000000 0.0000000000 0.0000000000  Biso 1.0 Rh
