# AFLOW.org Repositories
# Mo3P1   [BCT,BCT1,tI32] (STD_PRIM doi:10
data_Mo3P1
_pd_phase_name Mo3P1
_cell_length_a  7.4123992079
_cell_length_b  7.4123992079
_cell_length_c  7.4123992079
_cell_angle_alpha  96.1480117012
_cell_angle_beta  96.1480117012
_cell_angle_gamma  141.7952383558
_symmetry_space_group_name_H-M  'P1'
_symmetry_Int_Tables_Number  1
loop_
_symmetry_equiv_pos_site_id
_symmetry_equiv_pos_as_xyz
  1  x,y,z
loop_
 _atom_site_label
 _atom_site_occupancy
 _atom_site_fract_x
 _atom_site_fract_y
 _atom_site_fract_z
 _atom_site_thermal_displace_type
 _atom_site_B_iso_or_equiv
 _atom_site_type_symbol
Mo1 1.0000000000 0.3257292737 0.1404120579 0.0000000000  Biso 1.0 Mo
Mo2 1.0000000000 0.1404120579 0.3257292737 0.0000000000  Biso 1.0 Mo
Mo3 1.0000000000 0.6742707263 0.6742707263 0.8146827842  Biso 1.0 Mo
Mo4 1.0000000000 0.8595879421 0.8595879421 0.1853172158  Biso 1.0 Mo
Mo5 1.0000000000 0.9342748203 0.5327831104 0.0000000000  Biso 1.0 Mo
Mo6 1.0000000000 0.5327831104 0.9342748203 0.0000000000  Biso 1.0 Mo
Mo7 1.0000000000 0.0657251797 0.0657251797 0.5985082900  Biso 1.0 Mo
Mo8 1.0000000000 0.4672168896 0.4672168896 0.4014917100  Biso 1.0 Mo
Mo9 1.0000000000 0.0000000000 0.6449751325 0.6449751325  Biso 1.0 Mo
Mo10 1.0000000000 0.0000000000 0.3550248675 0.3550248675  Biso 1.0 Mo
Mo11 1.0000000000 0.6449751325 0.0000000000 0.6449751325  Biso 1.0 Mo
Mo12 1.0000000000 0.3550248675 0.0000000000 0.3550248675  Biso 1.0 Mo
P13 1.0000000000 0.5000000000 0.2085830172 0.7085830172  Biso 1.0 P
P14 1.0000000000 0.5000000000 0.7914169828 0.2914169828  Biso 1.0 P
P15 1.0000000000 0.2085830172 0.5000000000 0.7085830172  Biso 1.0 P
P16 1.0000000000 0.7914169828 0.5000000000 0.2914169828  Biso 1.0 P
