# AFLOW.org Repositories
# N1Nb3Zn3   [FCC,FCC,cF112] (STD_PRIM doi
data_N1Nb3Zn3
_pd_phase_name N1Nb3Zn3
_cell_length_a  8.2651015564
_cell_length_b  8.2651015564
_cell_length_c  8.2651015564
_cell_angle_alpha  60.0000000000
_cell_angle_beta  60.0000000000
_cell_angle_gamma  60.0000000000
_symmetry_space_group_name_H-M  'P1'
_symmetry_Int_Tables_Number  1
loop_
_symmetry_equiv_pos_site_id
_symmetry_equiv_pos_as_xyz
  1  x,y,z
loop_
 _atom_site_label
 _atom_site_occupancy
 _atom_site_fract_x
 _atom_site_fract_y
 _atom_site_fract_z
 _atom_site_thermal_displace_type
 _atom_site_B_iso_or_equiv
 _atom_site_type_symbol
N1 1.0000000000 0.6250000000 0.1250000000 0.6250000000  Biso 1.0 N
N2 1.0000000000 0.6250000000 0.6250000000 0.6250000000  Biso 1.0 N
N3 1.0000000000 0.6250000000 0.6250000000 0.1250000000  Biso 1.0 N
N4 1.0000000000 0.1250000000 0.6250000000 0.6250000000  Biso 1.0 N
Nb5 1.0000000000 0.6819818403 0.6819818403 0.3180181597  Biso 1.0 Nb
Nb6 1.0000000000 0.3180181597 0.3180181597 0.6819818403  Biso 1.0 Nb
Nb7 1.0000000000 0.3180181597 0.6819818403 0.6819818403  Biso 1.0 Nb
Nb8 1.0000000000 0.6819818403 0.3180181597 0.3180181597  Biso 1.0 Nb
Nb9 1.0000000000 0.3180181597 0.6819818403 0.3180181597  Biso 1.0 Nb
Nb10 1.0000000000 0.6819818403 0.3180181597 0.6819818403  Biso 1.0 Nb
Nb11 1.0000000000 0.5680181597 0.9319818403 0.9319818403  Biso 1.0 Nb
Nb12 1.0000000000 0.9319818403 0.5680181597 0.5680181597  Biso 1.0 Nb
Nb13 1.0000000000 0.9319818403 0.9319818403 0.5680181597  Biso 1.0 Nb
Nb14 1.0000000000 0.5680181597 0.5680181597 0.9319818403  Biso 1.0 Nb
Nb15 1.0000000000 0.9319818403 0.5680181597 0.9319818403  Biso 1.0 Nb
Nb16 1.0000000000 0.5680181597 0.9319818403 0.5680181597  Biso 1.0 Nb
Zn17 1.0000000000 0.9183510148 0.2449469557 0.9183510148  Biso 1.0 Zn
Zn18 1.0000000000 0.9183510148 0.9183510148 0.9183510148  Biso 1.0 Zn
Zn19 1.0000000000 0.9183510148 0.9183510148 0.2449469557  Biso 1.0 Zn
Zn20 1.0000000000 0.2449469557 0.9183510148 0.9183510148  Biso 1.0 Zn
Zn21 1.0000000000 0.3316489852 0.3316489852 0.3316489852  Biso 1.0 Zn
Zn22 1.0000000000 0.3316489852 0.0050530443 0.3316489852  Biso 1.0 Zn
Zn23 1.0000000000 0.3316489852 0.3316489852 0.0050530443  Biso 1.0 Zn
Zn24 1.0000000000 0.0050530443 0.3316489852 0.3316489852  Biso 1.0 Zn
Zn25 1.0000000000 0.1250000000 0.6250000000 0.1250000000  Biso 1.0 Zn
Zn26 1.0000000000 0.1250000000 0.1250000000 0.1250000000  Biso 1.0 Zn
Zn27 1.0000000000 0.1250000000 0.1250000000 0.6250000000  Biso 1.0 Zn
Zn28 1.0000000000 0.6250000000 0.1250000000 0.1250000000  Biso 1.0 Zn
