# AFLOW.org Repositories
# N1Ni2Zr4   [FCC,FCC,cF112] (STD_PRIM doi
data_N1Ni2Zr4
_pd_phase_name N1Ni2Zr4
_cell_length_a  8.6470536191
_cell_length_b  8.6470536191
_cell_length_c  8.6470536191
_cell_angle_alpha  60.0000000000
_cell_angle_beta  60.0000000000
_cell_angle_gamma  60.0000000000
_symmetry_space_group_name_H-M  'P1'
_symmetry_Int_Tables_Number  1
loop_
_symmetry_equiv_pos_site_id
_symmetry_equiv_pos_as_xyz
  1  x,y,z
loop_
 _atom_site_label
 _atom_site_occupancy
 _atom_site_fract_x
 _atom_site_fract_y
 _atom_site_fract_z
 _atom_site_thermal_displace_type
 _atom_site_B_iso_or_equiv
 _atom_site_type_symbol
N1 1.0000000000 0.5000000000 0.5000000000 0.5000000000  Biso 1.0 N
N2 1.0000000000 0.5000000000 0.5000000000 0.0000000000  Biso 1.0 N
N3 1.0000000000 0.0000000000 0.5000000000 0.5000000000  Biso 1.0 N
N4 1.0000000000 0.5000000000 0.0000000000 0.5000000000  Biso 1.0 N
Ni5 1.0000000000 0.7853131143 0.7853131143 0.7853131143  Biso 1.0 Ni
Ni6 1.0000000000 0.7853131143 0.7853131143 0.1440606570  Biso 1.0 Ni
Ni7 1.0000000000 0.1440606570 0.7853131143 0.7853131143  Biso 1.0 Ni
Ni8 1.0000000000 0.7853131143 0.1440606570 0.7853131143  Biso 1.0 Ni
Ni9 1.0000000000 0.2146868857 0.2146868857 0.8559393430  Biso 1.0 Ni
Ni10 1.0000000000 0.2146868857 0.2146868857 0.2146868857  Biso 1.0 Ni
Ni11 1.0000000000 0.8559393430 0.2146868857 0.2146868857  Biso 1.0 Ni
Ni12 1.0000000000 0.2146868857 0.8559393430 0.2146868857  Biso 1.0 Ni
Zr13 1.0000000000 0.0000000000 0.0000000000 0.0000000000  Biso 1.0 Zr
Zr14 1.0000000000 0.0000000000 0.0000000000 0.5000000000  Biso 1.0 Zr
Zr15 1.0000000000 0.5000000000 0.0000000000 0.0000000000  Biso 1.0 Zr
Zr16 1.0000000000 0.0000000000 0.5000000000 0.0000000000  Biso 1.0 Zr
Zr17 1.0000000000 0.5578849793 0.1921150207 0.5578849793  Biso 1.0 Zr
Zr18 1.0000000000 0.1921150207 0.5578849793 0.1921150207  Biso 1.0 Zr
Zr19 1.0000000000 0.1921150207 0.5578849793 0.5578849793  Biso 1.0 Zr
Zr20 1.0000000000 0.5578849793 0.1921150207 0.1921150207  Biso 1.0 Zr
Zr21 1.0000000000 0.5578849793 0.5578849793 0.1921150207  Biso 1.0 Zr
Zr22 1.0000000000 0.1921150207 0.1921150207 0.5578849793  Biso 1.0 Zr
Zr23 1.0000000000 0.4421150207 0.8078849793 0.8078849793  Biso 1.0 Zr
Zr24 1.0000000000 0.8078849793 0.4421150207 0.4421150207  Biso 1.0 Zr
Zr25 1.0000000000 0.8078849793 0.4421150207 0.8078849793  Biso 1.0 Zr
Zr26 1.0000000000 0.4421150207 0.8078849793 0.4421150207  Biso 1.0 Zr
Zr27 1.0000000000 0.4421150207 0.4421150207 0.8078849793  Biso 1.0 Zr
Zr28 1.0000000000 0.8078849793 0.8078849793 0.4421150207  Biso 1.0 Zr
