# AFLOW.org Repositories
# N1Pt2Zr4   [FCC,FCC,cF112] (STD_PRIM doi
data_N1Pt2Zr4
_pd_phase_name N1Pt2Zr4
_cell_length_a  8.8749398664
_cell_length_b  8.8749398664
_cell_length_c  8.8749398664
_cell_angle_alpha  60.0000000000
_cell_angle_beta  60.0000000000
_cell_angle_gamma  60.0000000000
_symmetry_space_group_name_H-M  'P1'
_symmetry_Int_Tables_Number  1
loop_
_symmetry_equiv_pos_site_id
_symmetry_equiv_pos_as_xyz
  1  x,y,z
loop_
 _atom_site_label
 _atom_site_occupancy
 _atom_site_fract_x
 _atom_site_fract_y
 _atom_site_fract_z
 _atom_site_thermal_displace_type
 _atom_site_B_iso_or_equiv
 _atom_site_type_symbol
N1 1.0000000000 0.5000000000 0.5000000000 0.5000000000  Biso 1.0 N
N2 1.0000000000 0.5000000000 0.0000000000 0.0000000000  Biso 1.0 N
N3 1.0000000000 0.5000000000 0.0000000000 0.5000000000  Biso 1.0 N
N4 1.0000000000 0.0000000000 0.0000000000 0.5000000000  Biso 1.0 N
Pt5 1.0000000000 0.7815143942 0.6554568175 0.7815143942  Biso 1.0 Pt
Pt6 1.0000000000 0.7815143942 0.2815143942 0.1554568175  Biso 1.0 Pt
Pt7 1.0000000000 0.7815143942 0.2815143942 0.7815143942  Biso 1.0 Pt
Pt8 1.0000000000 0.1554568175 0.2815143942 0.7815143942  Biso 1.0 Pt
Pt9 1.0000000000 0.2184856058 0.7184856058 0.8445431825  Biso 1.0 Pt
Pt10 1.0000000000 0.2184856058 0.3445431825 0.2184856058  Biso 1.0 Pt
Pt11 1.0000000000 0.2184856058 0.7184856058 0.2184856058  Biso 1.0 Pt
Pt12 1.0000000000 0.8445431825 0.7184856058 0.2184856058  Biso 1.0 Pt
Zr13 1.0000000000 0.0000000000 0.0000000000 0.0000000000  Biso 1.0 Zr
Zr14 1.0000000000 0.0000000000 0.5000000000 0.5000000000  Biso 1.0 Zr
Zr15 1.0000000000 0.0000000000 0.5000000000 0.0000000000  Biso 1.0 Zr
Zr16 1.0000000000 0.5000000000 0.5000000000 0.0000000000  Biso 1.0 Zr
Zr17 1.0000000000 0.1933326471 0.6933326471 0.5566673529  Biso 1.0 Zr
Zr18 1.0000000000 0.5566673529 0.0566673529 0.1933326471  Biso 1.0 Zr
Zr19 1.0000000000 0.5566673529 0.6933326471 0.5566673529  Biso 1.0 Zr
Zr20 1.0000000000 0.1933326471 0.0566673529 0.1933326471  Biso 1.0 Zr
Zr21 1.0000000000 0.5566673529 0.6933326471 0.1933326471  Biso 1.0 Zr
Zr22 1.0000000000 0.1933326471 0.0566673529 0.5566673529  Biso 1.0 Zr
Zr23 1.0000000000 0.8066673529 0.9433326471 0.8066673529  Biso 1.0 Zr
Zr24 1.0000000000 0.4433326471 0.3066673529 0.4433326471  Biso 1.0 Zr
Zr25 1.0000000000 0.4433326471 0.9433326471 0.8066673529  Biso 1.0 Zr
Zr26 1.0000000000 0.8066673529 0.3066673529 0.4433326471  Biso 1.0 Zr
Zr27 1.0000000000 0.4433326471 0.3066673529 0.8066673529  Biso 1.0 Zr
Zr28 1.0000000000 0.8066673529 0.9433326471 0.4433326471  Biso 1.0 Zr
