# AFLOW.org Repositories
# N2W1   [CUB,CUB,cP12] (STD_PRIM doi:10.1
data_N2W1
_pd_phase_name N2W1
_cell_length_a  5.0319856154
_cell_length_b  5.0319856154
_cell_length_c  5.0319856154
_cell_angle_alpha  90.0000000000
_cell_angle_beta  90.0000000000
_cell_angle_gamma  90.0000000000
_symmetry_space_group_name_H-M  'P1'
_symmetry_Int_Tables_Number  1
loop_
_symmetry_equiv_pos_site_id
_symmetry_equiv_pos_as_xyz
  1  x,y,z
loop_
 _atom_site_label
 _atom_site_occupancy
 _atom_site_fract_x
 _atom_site_fract_y
 _atom_site_fract_z
 _atom_site_thermal_displace_type
 _atom_site_B_iso_or_equiv
 _atom_site_type_symbol
N1 1.0000000000 0.6505572332 0.6505572332 0.3494427668  Biso 1.0 N
N2 1.0000000000 0.8494427668 0.3494427668 0.8494427668  Biso 1.0 N
N3 1.0000000000 0.3494427668 0.1505572332 0.1505572332  Biso 1.0 N
N4 1.0000000000 0.1505572332 0.8494427668 0.6505572332  Biso 1.0 N
N5 1.0000000000 0.3494427668 0.3494427668 0.6505572332  Biso 1.0 N
N6 1.0000000000 0.1505572332 0.6505572332 0.1505572332  Biso 1.0 N
N7 1.0000000000 0.6505572332 0.8494427668 0.8494427668  Biso 1.0 N
N8 1.0000000000 0.8494427668 0.1505572332 0.3494427668  Biso 1.0 N
W9 1.0000000000 0.0000000000 0.0000000000 0.0000000000  Biso 1.0 W
W10 1.0000000000 0.5000000000 0.0000000000 0.5000000000  Biso 1.0 W
W11 1.0000000000 0.0000000000 0.5000000000 0.5000000000  Biso 1.0 W
W12 1.0000000000 0.5000000000 0.5000000000 0.0000000000  Biso 1.0 W
