# AFLOW.org Repositories
# N3Tl1   [BCT,BCT2,tI16] (STD_PRIM doi:10
data_N3Tl1
_pd_phase_name N3Tl1
_cell_length_a  5.8336956790
_cell_length_b  5.8336956790
_cell_length_c  5.8336956790
_cell_angle_alpha  114.1640816620
_cell_angle_beta  114.1640816620
_cell_angle_gamma  100.4453561232
_symmetry_space_group_name_H-M  'P1'
_symmetry_Int_Tables_Number  1
loop_
_symmetry_equiv_pos_site_id
_symmetry_equiv_pos_as_xyz
  1  x,y,z
loop_
 _atom_site_label
 _atom_site_occupancy
 _atom_site_fract_x
 _atom_site_fract_y
 _atom_site_fract_z
 _atom_site_thermal_displace_type
 _atom_site_B_iso_or_equiv
 _atom_site_type_symbol
N1 1.0000000000 0.6326518566 0.1326518566 0.7653037133  Biso 1.0 N
N2 1.0000000000 0.3673481434 0.8673481434 0.2346962867  Biso 1.0 N
N3 1.0000000000 0.1326518566 0.3673481434 0.5000000000  Biso 1.0 N
N4 1.0000000000 0.8673481434 0.6326518566 0.5000000000  Biso 1.0 N
N5 1.0000000000 0.5000000000 0.0000000000 0.5000000000  Biso 1.0 N
N6 1.0000000000 0.0000000000 0.5000000000 0.5000000000  Biso 1.0 N
Tl7 1.0000000000 0.2500000000 0.2500000000 0.0000000000  Biso 1.0 Tl
Tl8 1.0000000000 0.7500000000 0.7500000000 0.0000000000  Biso 1.0 Tl
