# AFLOW.org Repositories
# Na2S1   [ORC,ORC,oP12] (STD_PRIM doi:10.
data_Na2S1
_pd_phase_name Na2S1
_cell_length_a  4.3156167127
_cell_length_b  7.1102339408
_cell_length_c  8.3649725579
_cell_angle_alpha  90.0000000000
_cell_angle_beta  90.0000000000
_cell_angle_gamma  90.0000000000
_symmetry_space_group_name_H-M  'P1'
_symmetry_Int_Tables_Number  1
loop_
_symmetry_equiv_pos_site_id
_symmetry_equiv_pos_as_xyz
  1  x,y,z
loop_
 _atom_site_label
 _atom_site_occupancy
 _atom_site_fract_x
 _atom_site_fract_y
 _atom_site_fract_z
 _atom_site_thermal_displace_type
 _atom_site_B_iso_or_equiv
 _atom_site_type_symbol
Na1 1.0000000000 0.2500000000 0.0229291940 0.8300330653  Biso 1.0 Na
Na2 1.0000000000 0.7500000000 0.4770708060 0.3300330653  Biso 1.0 Na
Na3 1.0000000000 0.7500000000 0.9770708060 0.1699669347  Biso 1.0 Na
Na4 1.0000000000 0.2500000000 0.5229291940 0.6699669347  Biso 1.0 Na
Na5 1.0000000000 0.2500000000 0.1467530313 0.4279017285  Biso 1.0 Na
Na6 1.0000000000 0.7500000000 0.3532469687 0.9279017285  Biso 1.0 Na
Na7 1.0000000000 0.7500000000 0.8532469687 0.5720982715  Biso 1.0 Na
Na8 1.0000000000 0.2500000000 0.6467530313 0.0720982715  Biso 1.0 Na
S9 1.0000000000 0.2500000000 0.2531622654 0.1130225658  Biso 1.0 S
S10 1.0000000000 0.7500000000 0.2468377346 0.6130225658  Biso 1.0 S
S11 1.0000000000 0.7500000000 0.7468377346 0.8869774342  Biso 1.0 S
S12 1.0000000000 0.2500000000 0.7531622654 0.3869774342  Biso 1.0 S
