# AFLOW.org Repositories
# Na3Sb1   [HEX,HEX,hP8] (STD_PRIM doi:10.
data_Na3Sb1
_pd_phase_name Na3Sb1
_cell_length_a  5.3384601389
_cell_length_b  5.3384601389
_cell_length_c  9.4850812396
_cell_angle_alpha  90.0000000000
_cell_angle_beta  90.0000000000
_cell_angle_gamma  120.0000000000
_symmetry_space_group_name_H-M  'P1'
_symmetry_Int_Tables_Number  1
loop_
_symmetry_equiv_pos_site_id
_symmetry_equiv_pos_as_xyz
  1  x,y,z
loop_
 _atom_site_label
 _atom_site_occupancy
 _atom_site_fract_x
 _atom_site_fract_y
 _atom_site_fract_z
 _atom_site_thermal_displace_type
 _atom_site_B_iso_or_equiv
 _atom_site_type_symbol
Na1 1.0000000000 0.0000000000 0.0000000000 0.2500000000  Biso 1.0 Na
Na2 1.0000000000 0.0000000000 0.0000000000 0.7500000000  Biso 1.0 Na
Na3 1.0000000000 0.6666958562 0.3333917123 0.5828625787  Biso 1.0 Na
Na4 1.0000000000 0.3333041438 0.6666082877 0.0828625787  Biso 1.0 Na
Na5 1.0000000000 0.3333041438 0.6666082877 0.4171374213  Biso 1.0 Na
Na6 1.0000000000 0.6666958562 0.3333917123 0.9171374213  Biso 1.0 Na
Sb7 1.0000000000 0.6666919795 0.3333839590 0.2500000000  Biso 1.0 Sb
Sb8 1.0000000000 0.3333080205 0.6666160410 0.7500000000  Biso 1.0 Sb
