# AFLOW.org Repositories
# Nb1S1   [HEX,HEX,hP4] (STD_PRIM doi:10.1
data_Nb1S1
_pd_phase_name Nb1S1
_cell_length_a  3.3048628054
_cell_length_b  3.3048628054
_cell_length_c  6.7016235586
_cell_angle_alpha  90.0000000000
_cell_angle_beta  90.0000000000
_cell_angle_gamma  120.0000000000
_symmetry_space_group_name_H-M  'P1'
_symmetry_Int_Tables_Number  1
loop_
_symmetry_equiv_pos_site_id
_symmetry_equiv_pos_as_xyz
  1  x,y,z
loop_
 _atom_site_label
 _atom_site_occupancy
 _atom_site_fract_x
 _atom_site_fract_y
 _atom_site_fract_z
 _atom_site_thermal_displace_type
 _atom_site_B_iso_or_equiv
 _atom_site_type_symbol
Nb1 1.0000000000 0.0000000000 0.0000000000 0.0000000000  Biso 1.0 Nb
Nb2 1.0000000000 0.0000000000 0.0000000000 0.5000000000  Biso 1.0 Nb
S3 1.0000000000 0.6666784230 0.3333568460 0.2500000000  Biso 1.0 S
S4 1.0000000000 0.3333215770 0.6666431540 0.7500000000  Biso 1.0 S
