# AFLOW.org Repositories
# Nb5O9Sr2   [TET,TET,tP16] (STD_PRIM doi:
data_Nb5O9Sr2
_pd_phase_name Nb5O9Sr2
_cell_length_a  4.1861497346
_cell_length_b  4.1861497346
_cell_length_c  12.1585856575
_cell_angle_alpha  90.0000000000
_cell_angle_beta  90.0000000000
_cell_angle_gamma  90.0000000000
_symmetry_space_group_name_H-M  'P1'
_symmetry_Int_Tables_Number  1
loop_
_symmetry_equiv_pos_site_id
_symmetry_equiv_pos_as_xyz
  1  x,y,z
loop_
 _atom_site_label
 _atom_site_occupancy
 _atom_site_fract_x
 _atom_site_fract_y
 _atom_site_fract_z
 _atom_site_thermal_displace_type
 _atom_site_B_iso_or_equiv
 _atom_site_type_symbol
Nb1 1.0000000000 0.0000000000 0.5000000000 0.5000000000  Biso 1.0 Nb
Nb2 1.0000000000 0.5000000000 0.0000000000 0.5000000000  Biso 1.0 Nb
Nb3 1.0000000000 0.5000000000 0.5000000000 0.3348201530  Biso 1.0 Nb
Nb4 1.0000000000 0.5000000000 0.5000000000 0.6651798470  Biso 1.0 Nb
Nb5 1.0000000000 0.5000000000 0.5000000000 0.0000000000  Biso 1.0 Nb
O6 1.0000000000 0.0000000000 0.0000000000 0.5000000000  Biso 1.0 O
O7 1.0000000000 0.0000000000 0.5000000000 0.3227852468  Biso 1.0 O
O8 1.0000000000 0.5000000000 0.0000000000 0.3227852468  Biso 1.0 O
O9 1.0000000000 0.0000000000 0.5000000000 0.6772147532  Biso 1.0 O
O10 1.0000000000 0.5000000000 0.0000000000 0.6772147532  Biso 1.0 O
O11 1.0000000000 0.5000000000 0.5000000000 0.1613607615  Biso 1.0 O
O12 1.0000000000 0.5000000000 0.5000000000 0.8386392385  Biso 1.0 O
O13 1.0000000000 0.0000000000 0.5000000000 0.0000000000  Biso 1.0 O
O14 1.0000000000 0.5000000000 0.0000000000 0.0000000000  Biso 1.0 O
Sr15 1.0000000000 0.0000000000 0.0000000000 0.1686820500  Biso 1.0 Sr
Sr16 1.0000000000 0.0000000000 0.0000000000 0.8313179500  Biso 1.0 Sr
