# AFLOW.org Repositories
# Ni1O6Ta2   [TET,TET,tP18] (STD_PRIM doi:
data_Ni1O6Ta2
_pd_phase_name Ni1O6Ta2
_cell_length_a  4.7863476603
_cell_length_b  4.7863476603
_cell_length_c  9.2235934623
_cell_angle_alpha  90.0000000000
_cell_angle_beta  90.0000000000
_cell_angle_gamma  90.0000000000
_symmetry_space_group_name_H-M  'P1'
_symmetry_Int_Tables_Number  1
loop_
_symmetry_equiv_pos_site_id
_symmetry_equiv_pos_as_xyz
  1  x,y,z
loop_
 _atom_site_label
 _atom_site_occupancy
 _atom_site_fract_x
 _atom_site_fract_y
 _atom_site_fract_z
 _atom_site_thermal_displace_type
 _atom_site_B_iso_or_equiv
 _atom_site_type_symbol
Ni1 1.0000000000 0.0000000000 0.0000000000 0.0000000000  Biso 1.0 Ni
Ni2 1.0000000000 0.5000000000 0.5000000000 0.5000000000  Biso 1.0 Ni
O3 1.0000000000 0.3101123517 0.3101123517 0.0000000000  Biso 1.0 O
O4 1.0000000000 0.6898876483 0.6898876483 0.0000000000  Biso 1.0 O
O5 1.0000000000 0.1898876483 0.8101123517 0.5000000000  Biso 1.0 O
O6 1.0000000000 0.8101123517 0.1898876483 0.5000000000  Biso 1.0 O
O7 1.0000000000 0.2975753661 0.2975753661 0.3257765083  Biso 1.0 O
O8 1.0000000000 0.7024246339 0.7024246339 0.3257765083  Biso 1.0 O
O9 1.0000000000 0.2024246339 0.7975753661 0.8257765083  Biso 1.0 O
O10 1.0000000000 0.7975753661 0.2024246339 0.8257765083  Biso 1.0 O
O11 1.0000000000 0.2024246339 0.7975753661 0.1742234917  Biso 1.0 O
O12 1.0000000000 0.7975753661 0.2024246339 0.1742234917  Biso 1.0 O
O13 1.0000000000 0.2975753661 0.2975753661 0.6742234917  Biso 1.0 O
O14 1.0000000000 0.7024246339 0.7024246339 0.6742234917  Biso 1.0 O
Ta15 1.0000000000 0.0000000000 0.0000000000 0.3313302581  Biso 1.0 Ta
Ta16 1.0000000000 0.5000000000 0.5000000000 0.8313302581  Biso 1.0 Ta
Ta17 1.0000000000 0.5000000000 0.5000000000 0.1686697419  Biso 1.0 Ta
Ta18 1.0000000000 0.0000000000 0.0000000000 0.6686697419  Biso 1.0 Ta
