# AFLOW.org Repositories
# Ni1Sc2   [FCC,FCC,cF96] (STD_PRIM doi:10
data_Ni1Sc2
_pd_phase_name Ni1Sc2
_cell_length_a  8.7103773269
_cell_length_b  8.7103773269
_cell_length_c  8.7103773269
_cell_angle_alpha  60.0000000000
_cell_angle_beta  60.0000000000
_cell_angle_gamma  60.0000000000
_symmetry_space_group_name_H-M  'P1'
_symmetry_Int_Tables_Number  1
loop_
_symmetry_equiv_pos_site_id
_symmetry_equiv_pos_as_xyz
  1  x,y,z
loop_
 _atom_site_label
 _atom_site_occupancy
 _atom_site_fract_x
 _atom_site_fract_y
 _atom_site_fract_z
 _atom_site_thermal_displace_type
 _atom_site_B_iso_or_equiv
 _atom_site_type_symbol
Ni1 1.0000000000 0.2128378148 0.3614865555 0.2128378148  Biso 1.0 Ni
Ni2 1.0000000000 0.8614865555 0.7128378148 0.2128378148  Biso 1.0 Ni
Ni3 1.0000000000 0.2128378148 0.7128378148 0.2128378148  Biso 1.0 Ni
Ni4 1.0000000000 0.2128378148 0.7128378148 0.8614865555  Biso 1.0 Ni
Ni5 1.0000000000 0.1385134445 0.2871621852 0.7871621852  Biso 1.0 Ni
Ni6 1.0000000000 0.7871621852 0.6385134445 0.7871621852  Biso 1.0 Ni
Ni7 1.0000000000 0.7871621852 0.2871621852 0.7871621852  Biso 1.0 Ni
Ni8 1.0000000000 0.7871621852 0.2871621852 0.1385134445  Biso 1.0 Ni
Sc9 1.0000000000 0.0000000000 0.0000000000 0.0000000000  Biso 1.0 Sc
Sc10 1.0000000000 0.5000000000 0.5000000000 0.0000000000  Biso 1.0 Sc
Sc11 1.0000000000 0.0000000000 0.5000000000 0.0000000000  Biso 1.0 Sc
Sc12 1.0000000000 0.0000000000 0.5000000000 0.5000000000  Biso 1.0 Sc
Sc13 1.0000000000 0.4396234869 0.3103765131 0.8103765131  Biso 1.0 Sc
Sc14 1.0000000000 0.8103765131 0.9396234869 0.4396234869  Biso 1.0 Sc
Sc15 1.0000000000 0.4396234869 0.3103765131 0.4396234869  Biso 1.0 Sc
Sc16 1.0000000000 0.8103765131 0.9396234869 0.8103765131  Biso 1.0 Sc
Sc17 1.0000000000 0.8103765131 0.3103765131 0.4396234869  Biso 1.0 Sc
Sc18 1.0000000000 0.4396234869 0.9396234869 0.8103765131  Biso 1.0 Sc
Sc19 1.0000000000 0.1896234869 0.0603765131 0.1896234869  Biso 1.0 Sc
Sc20 1.0000000000 0.5603765131 0.6896234869 0.5603765131  Biso 1.0 Sc
Sc21 1.0000000000 0.1896234869 0.0603765131 0.5603765131  Biso 1.0 Sc
Sc22 1.0000000000 0.5603765131 0.6896234869 0.1896234869  Biso 1.0 Sc
Sc23 1.0000000000 0.1896234869 0.6896234869 0.5603765131  Biso 1.0 Sc
Sc24 1.0000000000 0.5603765131 0.0603765131 0.1896234869  Biso 1.0 Sc
