# AFLOW.org Repositories
# Ni1Ta1Te5   [ORCC,ORCC,oS28] (STD_PRIM d
data_Ni1Ta1Te5
_pd_phase_name Ni1Ta1Te5
_cell_length_a  7.2661339572
_cell_length_b  7.2661339572
_cell_length_c  15.1873136969
_cell_angle_alpha  90.0000000000
_cell_angle_beta  90.0000000000
_cell_angle_gamma  150.4051675469
_symmetry_space_group_name_H-M  'P1'
_symmetry_Int_Tables_Number  1
loop_
_symmetry_equiv_pos_site_id
_symmetry_equiv_pos_as_xyz
  1  x,y,z
loop_
 _atom_site_label
 _atom_site_occupancy
 _atom_site_fract_x
 _atom_site_fract_y
 _atom_site_fract_z
 _atom_site_thermal_displace_type
 _atom_site_B_iso_or_equiv
 _atom_site_type_symbol
Ni1 1.0000000000 0.0000000000 0.0000000000 0.0000000000  Biso 1.0 Ni
Ni2 1.0000000000 0.0000000000 0.0000000000 0.5000000000  Biso 1.0 Ni
Ta3 1.0000000000 0.5095576536 0.4904423464 0.7500000000  Biso 1.0 Ta
Ta4 1.0000000000 0.4904423464 0.5095576536 0.2500000000  Biso 1.0 Ta
Te5 1.0000000000 0.9023480780 0.0976519220 0.8552347606  Biso 1.0 Te
Te6 1.0000000000 0.0976519220 0.9023480780 0.3552347606  Biso 1.0 Te
Te7 1.0000000000 0.9023480780 0.0976519220 0.6447652394  Biso 1.0 Te
Te8 1.0000000000 0.0976519220 0.9023480780 0.1447652394  Biso 1.0 Te
Te9 1.0000000000 0.4002628832 0.5997371168 0.4253643426  Biso 1.0 Te
Te10 1.0000000000 0.5997371168 0.4002628832 0.9253643426  Biso 1.0 Te
Te11 1.0000000000 0.4002628832 0.5997371168 0.0746356574  Biso 1.0 Te
Te12 1.0000000000 0.5997371168 0.4002628832 0.5746356574  Biso 1.0 Te
Te13 1.0000000000 0.8360883062 0.1639116938 0.2500000000  Biso 1.0 Te
Te14 1.0000000000 0.1639116938 0.8360883062 0.7500000000  Biso 1.0 Te
