# AFLOW.org Repositories
# Ni1Tb1   [ORCC,ORCC,oS8] (STD_PRIM doi:1
data_Ni1Tb1
_pd_phase_name Ni1Tb1
_cell_length_a  5.3798344279
_cell_length_b  5.3798344279
_cell_length_c  4.2812967699
_cell_angle_alpha  90.0000000000
_cell_angle_beta  90.0000000000
_cell_angle_gamma  140.1815908208
_symmetry_space_group_name_H-M  'P1'
_symmetry_Int_Tables_Number  1
loop_
_symmetry_equiv_pos_site_id
_symmetry_equiv_pos_as_xyz
  1  x,y,z
loop_
 _atom_site_label
 _atom_site_occupancy
 _atom_site_fract_x
 _atom_site_fract_y
 _atom_site_fract_z
 _atom_site_thermal_displace_type
 _atom_site_B_iso_or_equiv
 _atom_site_type_symbol
Ni1 1.0000000000 0.5762283093 0.4237716907 0.7500000000  Biso 1.0 Ni
Ni2 1.0000000000 0.4237716907 0.5762283093 0.2500000000  Biso 1.0 Ni
Tb3 1.0000000000 0.8625926500 0.1374073500 0.7500000000  Biso 1.0 Tb
Tb4 1.0000000000 0.1374073500 0.8625926500 0.2500000000  Biso 1.0 Tb
