# AFLOW.org Repositories
# Ni2Si2Zr1   [BCT,BCT2,tI10] (STD_PRIM do
data_Ni2Si2Zr1
_pd_phase_name Ni2Si2Zr1
_cell_length_a  5.5298102771
_cell_length_b  5.5298102771
_cell_length_c  5.5298102771
_cell_angle_alpha  140.1621189853
_cell_angle_beta  140.1621189853
_cell_angle_gamma  57.6072266668
_symmetry_space_group_name_H-M  'P1'
_symmetry_Int_Tables_Number  1
loop_
_symmetry_equiv_pos_site_id
_symmetry_equiv_pos_as_xyz
  1  x,y,z
loop_
 _atom_site_label
 _atom_site_occupancy
 _atom_site_fract_x
 _atom_site_fract_y
 _atom_site_fract_z
 _atom_site_thermal_displace_type
 _atom_site_B_iso_or_equiv
 _atom_site_type_symbol
Ni1 1.0000000000 0.2500000000 0.7500000000 0.5000000000  Biso 1.0 Ni
Ni2 1.0000000000 0.7500000000 0.2500000000 0.5000000000  Biso 1.0 Ni
Si3 1.0000000000 0.6211583827 0.6211583827 0.0000000000  Biso 1.0 Si
Si4 1.0000000000 0.3788416173 0.3788416173 0.0000000000  Biso 1.0 Si
Zr5 1.0000000000 0.0000000000 0.0000000000 0.0000000000  Biso 1.0 Zr
