# AFLOW.org Repositories
# Ni3Sb4Zr3   [BCC,BCC,cI40] (STD_PRIM doi
data_Ni3Sb4Zr3
_pd_phase_name Ni3Sb4Zr3
_cell_length_a  7.8861890260
_cell_length_b  7.8861890260
_cell_length_c  7.8861890260
_cell_angle_alpha  109.4712206345
_cell_angle_beta  109.4712206345
_cell_angle_gamma  109.4712206345
_symmetry_space_group_name_H-M  'P1'
_symmetry_Int_Tables_Number  1
loop_
_symmetry_equiv_pos_site_id
_symmetry_equiv_pos_as_xyz
  1  x,y,z
loop_
 _atom_site_label
 _atom_site_occupancy
 _atom_site_fract_x
 _atom_site_fract_y
 _atom_site_fract_z
 _atom_site_thermal_displace_type
 _atom_site_B_iso_or_equiv
 _atom_site_type_symbol
Ni1 1.0000000000 0.8750000000 0.1250000000 0.7500000000  Biso 1.0 Ni
Ni2 1.0000000000 0.6250000000 0.3750000000 0.2500000000  Biso 1.0 Ni
Ni3 1.0000000000 0.7500000000 0.6250000000 0.8750000000  Biso 1.0 Ni
Ni4 1.0000000000 0.2500000000 0.8750000000 0.6250000000  Biso 1.0 Ni
Ni5 1.0000000000 0.1250000000 0.2500000000 0.3750000000  Biso 1.0 Ni
Ni6 1.0000000000 0.3750000000 0.7500000000 0.1250000000  Biso 1.0 Ni
Sb7 1.0000000000 0.8357365415 0.0000000000 0.0000000000  Biso 1.0 Sb
Sb8 1.0000000000 0.0000000000 0.5000000000 0.3357365415  Biso 1.0 Sb
Sb9 1.0000000000 0.6642634585 0.6642634585 0.1642634585  Biso 1.0 Sb
Sb10 1.0000000000 0.5000000000 0.8357365415 0.5000000000  Biso 1.0 Sb
Sb11 1.0000000000 0.3357365415 0.0000000000 0.0000000000  Biso 1.0 Sb
Sb12 1.0000000000 0.0000000000 0.5000000000 0.8357365415  Biso 1.0 Sb
Sb13 1.0000000000 0.5000000000 0.3357365415 0.5000000000  Biso 1.0 Sb
Sb14 1.0000000000 0.1642634585 0.1642634585 0.6642634585  Biso 1.0 Sb
Zr15 1.0000000000 0.3750000000 0.6250000000 0.7500000000  Biso 1.0 Zr
Zr16 1.0000000000 0.1250000000 0.8750000000 0.2500000000  Biso 1.0 Zr
Zr17 1.0000000000 0.7500000000 0.1250000000 0.3750000000  Biso 1.0 Zr
Zr18 1.0000000000 0.2500000000 0.3750000000 0.1250000000  Biso 1.0 Zr
Zr19 1.0000000000 0.6250000000 0.2500000000 0.8750000000  Biso 1.0 Zr
Zr20 1.0000000000 0.8750000000 0.7500000000 0.6250000000  Biso 1.0 Zr
