# AFLOW.org Repositories
# O1Pd2Zr4   [FCC,FCC,cF112] (STD_PRIM doi
data_O1Pd2Zr4
_pd_phase_name O1Pd2Zr4
_cell_length_a  8.8826274758
_cell_length_b  8.8826274758
_cell_length_c  8.8826274758
_cell_angle_alpha  60.0000000000
_cell_angle_beta  60.0000000000
_cell_angle_gamma  60.0000000000
_symmetry_space_group_name_H-M  'P1'
_symmetry_Int_Tables_Number  1
loop_
_symmetry_equiv_pos_site_id
_symmetry_equiv_pos_as_xyz
  1  x,y,z
loop_
 _atom_site_label
 _atom_site_occupancy
 _atom_site_fract_x
 _atom_site_fract_y
 _atom_site_fract_z
 _atom_site_thermal_displace_type
 _atom_site_B_iso_or_equiv
 _atom_site_type_symbol
O1 1.0000000000 0.0000000000 0.0000000000 0.0000000000  Biso 1.0 O
O2 1.0000000000 0.5000000001 0.0000000000 0.0000000000  Biso 1.0 O
O3 1.0000000000 0.0000000000 0.0000000000 0.5000000000  Biso 1.0 O
O4 1.0000000000 0.0000000000 0.5000000000 0.0000000000  Biso 1.0 O
Pd5 1.0000000000 0.7146250385 0.7146250383 0.7146250385  Biso 1.0 Pd
Pd6 1.0000000000 0.3561248848 0.7146250384 0.7146250384  Biso 1.0 Pd
Pd7 1.0000000000 0.7146250385 0.7146250383 0.3561248848  Biso 1.0 Pd
Pd8 1.0000000000 0.7146250384 0.3561248847 0.7146250384  Biso 1.0 Pd
Pd9 1.0000000000 0.6438751153 0.2853749615 0.2853749616  Biso 1.0 Pd
Pd10 1.0000000000 0.2853749616 0.2853749615 0.2853749616  Biso 1.0 Pd
Pd11 1.0000000000 0.2853749617 0.2853749614 0.6438751153  Biso 1.0 Pd
Pd12 1.0000000000 0.2853749617 0.6438751151 0.2853749617  Biso 1.0 Pd
Zr13 1.0000000000 0.9442729710 0.3057270289 0.9442729710  Biso 1.0 Zr
Zr14 1.0000000000 0.3057270292 0.9442729708 0.3057270292  Biso 1.0 Zr
Zr15 1.0000000000 0.9442729709 0.9442729709 0.3057270291  Biso 1.0 Zr
Zr16 1.0000000000 0.3057270291 0.3057270290 0.9442729710  Biso 1.0 Zr
Zr17 1.0000000000 0.3057270291 0.9442729709 0.9442729709  Biso 1.0 Zr
Zr18 1.0000000000 0.9442729709 0.3057270291 0.3057270291  Biso 1.0 Zr
Zr19 1.0000000000 0.6942729710 0.6942729708 0.0557270292  Biso 1.0 Zr
Zr20 1.0000000000 0.0557270292 0.0557270289 0.6942729710  Biso 1.0 Zr
Zr21 1.0000000000 0.6942729710 0.0557270290 0.6942729710  Biso 1.0 Zr
Zr22 1.0000000000 0.0557270291 0.6942729708 0.0557270291  Biso 1.0 Zr
Zr23 1.0000000000 0.6942729710 0.0557270289 0.0557270292  Biso 1.0 Zr
Zr24 1.0000000000 0.0557270291 0.6942729709 0.6942729710  Biso 1.0 Zr
Zr25 1.0000000000 0.5000000000 0.5000000000 0.5000000000  Biso 1.0 Zr
Zr26 1.0000000000 0.0000000000 0.5000000000 0.5000000000  Biso 1.0 Zr
Zr27 1.0000000000 0.5000000001 0.4999999999 0.0000000000  Biso 1.0 Zr
Zr28 1.0000000000 0.5000000000 0.0000000000 0.5000000000  Biso 1.0 Zr
