# AFLOW.org Repositories
# O2Rb2   [ORCI,ORCI,oI8] (STD_PRIM doi:10
data_O2Rb2
_pd_phase_name O2Rb2
_cell_length_a  5.1665411607
_cell_length_b  5.1665411607
_cell_length_c  5.1665411607
_cell_angle_alpha  130.9593431044
_cell_angle_beta  108.5929950020
_cell_angle_gamma  91.4688375264
_symmetry_space_group_name_H-M  'P1'
_symmetry_Int_Tables_Number  1
loop_
_symmetry_equiv_pos_site_id
_symmetry_equiv_pos_as_xyz
  1  x,y,z
loop_
 _atom_site_label
 _atom_site_occupancy
 _atom_site_fract_x
 _atom_site_fract_y
 _atom_site_fract_z
 _atom_site_thermal_displace_type
 _atom_site_B_iso_or_equiv
 _atom_site_type_symbol
O1 1.0000000000 0.3735341252 0.0000000000 0.3735341252  Biso 1.0 O
O2 1.0000000000 0.6264658748 0.0000000000 0.6264658748  Biso 1.0 O
Rb3 1.0000000000 0.7387361413 0.7387361413 0.0000000000  Biso 1.0 Rb
Rb4 1.0000000000 0.2612638587 0.2612638587 0.0000000000  Biso 1.0 Rb
