# AFLOW.org Repositories
# O2Sn1   [ORC,ORC,oP12] (STD_PRIM doi:10.
data_O2Sn1
_pd_phase_name O2Sn1
_cell_length_a  4.8716005761
_cell_length_b  5.4022410812
_cell_length_c  5.9167059890
_cell_angle_alpha  90.0000000000
_cell_angle_beta  90.0000000000
_cell_angle_gamma  90.0000000000
_symmetry_space_group_name_H-M  'P1'
_symmetry_Int_Tables_Number  1
loop_
_symmetry_equiv_pos_site_id
_symmetry_equiv_pos_as_xyz
  1  x,y,z
loop_
 _atom_site_label
 _atom_site_occupancy
 _atom_site_fract_x
 _atom_site_fract_y
 _atom_site_fract_z
 _atom_site_thermal_displace_type
 _atom_site_B_iso_or_equiv
 _atom_site_type_symbol
O1 1.0000000000 0.7314594415 0.4232325310 0.3956563466  Biso 1.0 O
O2 1.0000000000 0.7685405585 0.9232325310 0.1043436534  Biso 1.0 O
O3 1.0000000000 0.2685405585 0.0767674690 0.3956563466  Biso 1.0 O
O4 1.0000000000 0.2314594415 0.5767674690 0.1043436534  Biso 1.0 O
O5 1.0000000000 0.2685405585 0.5767674690 0.6043436534  Biso 1.0 O
O6 1.0000000000 0.2314594415 0.0767674690 0.8956563466  Biso 1.0 O
O7 1.0000000000 0.7314594415 0.9232325310 0.6043436534  Biso 1.0 O
O8 1.0000000000 0.7685405585 0.4232325310 0.8956563466  Biso 1.0 O
Sn9 1.0000000000 0.0000000000 0.2500000000 0.1662799190  Biso 1.0 Sn
Sn10 1.0000000000 0.5000000000 0.7500000000 0.3337200810  Biso 1.0 Sn
Sn11 1.0000000000 0.0000000000 0.7500000000 0.8337200810  Biso 1.0 Sn
Sn12 1.0000000000 0.5000000000 0.2500000000 0.6662799190  Biso 1.0 Sn
