# AFLOW.org Repositories
# O2Sr1   [BCT,BCT2,tI6] (STD_PRIM doi:10.
data_O2Sr1
_pd_phase_name O2Sr1
_cell_length_a  4.2288434101
_cell_length_b  4.2288434101
_cell_length_c  4.2288434101
_cell_angle_alpha  129.9110170820
_cell_angle_beta  129.9110170820
_cell_angle_gamma  73.5490585649
_symmetry_space_group_name_H-M  'P1'
_symmetry_Int_Tables_Number  1
loop_
_symmetry_equiv_pos_site_id
_symmetry_equiv_pos_as_xyz
  1  x,y,z
loop_
 _atom_site_label
 _atom_site_occupancy
 _atom_site_fract_x
 _atom_site_fract_y
 _atom_site_fract_z
 _atom_site_thermal_displace_type
 _atom_site_B_iso_or_equiv
 _atom_site_type_symbol
O1 1.0000000000 0.6115491435 0.6115491435 0.0000000000  Biso 1.0 O
O2 1.0000000000 0.3884508565 0.3884508565 0.0000000000  Biso 1.0 O
Sr3 1.0000000000 0.0000000000 0.0000000000 0.0000000000  Biso 1.0 Sr
