# AFLOW.org Repositories
# O2Zr1   [ORC,ORC,oP12] (STD_PRIM doi:10.
data_O2Zr1
_pd_phase_name O2Zr1
_cell_length_a  5.0289478647
_cell_length_b  5.2992147676
_cell_length_c  5.8366469688
_cell_angle_alpha  90.0000000000
_cell_angle_beta  90.0000000000
_cell_angle_gamma  90.0000000000
_symmetry_space_group_name_H-M  'P1'
_symmetry_Int_Tables_Number  1
loop_
_symmetry_equiv_pos_site_id
_symmetry_equiv_pos_as_xyz
  1  x,y,z
loop_
 _atom_site_label
 _atom_site_occupancy
 _atom_site_fract_x
 _atom_site_fract_y
 _atom_site_fract_z
 _atom_site_thermal_displace_type
 _atom_site_B_iso_or_equiv
 _atom_site_type_symbol
O1 1.0000000000 0.4754116760 0.1110267786 0.1446226467  Biso 1.0 O
O2 1.0000000000 0.5245883240 0.6110267786 0.8553773533  Biso 1.0 O
O3 1.0000000000 0.5245883240 0.1110267786 0.6446226467  Biso 1.0 O
O4 1.0000000000 0.4754116760 0.6110267786 0.3553773533  Biso 1.0 O
O5 1.0000000000 0.0254280106 0.9592927007 0.3555469955  Biso 1.0 O
O6 1.0000000000 0.9745719894 0.4592927007 0.6444530045  Biso 1.0 O
O7 1.0000000000 0.9745719894 0.9592927007 0.8555469955  Biso 1.0 O
O8 1.0000000000 0.0254280106 0.4592927007 0.1444530045  Biso 1.0 O
Zr9 1.0000000000 0.2500088081 0.2856805207 0.4336540594  Biso 1.0 Zr
Zr10 1.0000000000 0.7499911919 0.7856805207 0.5663459406  Biso 1.0 Zr
Zr11 1.0000000000 0.7499911919 0.2856805207 0.9336540594  Biso 1.0 Zr
Zr12 1.0000000000 0.2500088081 0.7856805207 0.0663459406  Biso 1.0 Zr
