# AFLOW.org Repositories
# O3W1   [HEX,HEX,hP12] (STD_PRIM doi:10.1
data_O3W1
_pd_phase_name O3W1
_cell_length_a  7.4808735615
_cell_length_b  7.4808735615
_cell_length_c  3.8465273264
_cell_angle_alpha  90.0000000000
_cell_angle_beta  90.0000000000
_cell_angle_gamma  120.0000000000
_symmetry_space_group_name_H-M  'P1'
_symmetry_Int_Tables_Number  1
loop_
_symmetry_equiv_pos_site_id
_symmetry_equiv_pos_as_xyz
  1  x,y,z
loop_
 _atom_site_label
 _atom_site_occupancy
 _atom_site_fract_x
 _atom_site_fract_y
 _atom_site_fract_z
 _atom_site_thermal_displace_type
 _atom_site_B_iso_or_equiv
 _atom_site_type_symbol
O1 1.0000000000 0.4286858271 0.2143185257 0.0000000000  Biso 1.0 O
O2 1.0000000000 0.7856814743 0.2143673014 0.0000000000  Biso 1.0 O
O3 1.0000000000 0.7856326986 0.5713141729 0.0000000000  Biso 1.0 O
O4 1.0000000000 0.5713141729 0.7856814743 0.0000000000  Biso 1.0 O
O5 1.0000000000 0.2143185257 0.7856326986 0.0000000000  Biso 1.0 O
O6 1.0000000000 0.2143673014 0.4286858271 0.0000000000  Biso 1.0 O
O7 1.0000000000 0.5000000000 0.0000000000 0.5000000000  Biso 1.0 O
O8 1.0000000000 0.0000000000 0.5000000000 0.5000000000  Biso 1.0 O
O9 1.0000000000 0.5000000000 0.5000000000 0.5000000000  Biso 1.0 O
W10 1.0000000000 0.5000000000 0.0000000000 0.0000000000  Biso 1.0 W
W11 1.0000000000 0.0000000000 0.5000000000 0.0000000000  Biso 1.0 W
W12 1.0000000000 0.5000000000 0.5000000000 0.0000000000  Biso 1.0 W
