# AFLOW.org Repositories
# O4Sb1V1   [BCT,BCT1,tI24] (STD_PRIM doi:
data_O4Sb1V1
_pd_phase_name O4Sb1V1
_cell_length_a  5.6405643435
_cell_length_b  5.6405643435
_cell_length_c  5.6405643435
_cell_angle_alpha  108.2898348546
_cell_angle_beta  108.2898348546
_cell_angle_gamma  111.8607434883
_symmetry_space_group_name_H-M  'P1'
_symmetry_Int_Tables_Number  1
loop_
_symmetry_equiv_pos_site_id
_symmetry_equiv_pos_as_xyz
  1  x,y,z
loop_
 _atom_site_label
 _atom_site_occupancy
 _atom_site_fract_x
 _atom_site_fract_y
 _atom_site_fract_z
 _atom_site_thermal_displace_type
 _atom_site_B_iso_or_equiv
 _atom_site_type_symbol
O1 1.0000000000 0.0049517843 0.7021220498 0.6971702656  Biso 1.0 O
O2 1.0000000000 0.0049517843 0.3077815187 0.3028297344  Biso 1.0 O
O3 1.0000000000 0.9521220498 0.7549517843 0.1971702656  Biso 1.0 O
O4 1.0000000000 0.5577815187 0.7549517843 0.8028297344  Biso 1.0 O
O5 1.0000000000 0.4938742272 0.8047794884 0.3109052612  Biso 1.0 O
O6 1.0000000000 0.4938742272 0.1829689660 0.6890947388  Biso 1.0 O
O7 1.0000000000 0.0547794884 0.2438742272 0.8109052612  Biso 1.0 O
O8 1.0000000000 0.4329689660 0.2438742272 0.1890947388  Biso 1.0 O
Sb9 1.0000000000 0.5032640515 0.5032640515 0.0000000000  Biso 1.0 Sb
Sb10 1.0000000000 0.7532640515 0.2532640515 0.5000000000  Biso 1.0 Sb
V11 1.0000000000 0.0000000000 0.0000000000 0.0000000000  Biso 1.0 V
V12 1.0000000000 0.2490839257 0.7490839257 0.5000000000  Biso 1.0 V
