# AFLOW.org Repositories
# P1Ru1Zr1   [ORC,ORC,oP12] (STD_PRIM doi:
data_P1Ru1Zr1
_pd_phase_name P1Ru1Zr1
_cell_length_a  3.8882923395
_cell_length_b  6.4794834917
_cell_length_c  7.3488792662
_cell_angle_alpha  90.0000000000
_cell_angle_beta  90.0000000000
_cell_angle_gamma  90.0000000000
_symmetry_space_group_name_H-M  'P1'
_symmetry_Int_Tables_Number  1
loop_
_symmetry_equiv_pos_site_id
_symmetry_equiv_pos_as_xyz
  1  x,y,z
loop_
 _atom_site_label
 _atom_site_occupancy
 _atom_site_fract_x
 _atom_site_fract_y
 _atom_site_fract_z
 _atom_site_thermal_displace_type
 _atom_site_B_iso_or_equiv
 _atom_site_type_symbol
P1 1.0000000000 0.2500000000 0.7760306589 0.3789892176  Biso 1.0 P
P2 1.0000000000 0.7500000000 0.7239693411 0.8789892176  Biso 1.0 P
P3 1.0000000000 0.7500000000 0.2239693411 0.6210107824  Biso 1.0 P
P4 1.0000000000 0.2500000000 0.2760306589 0.1210107824  Biso 1.0 P
Ru5 1.0000000000 0.2500000000 0.1501087492 0.4396147224  Biso 1.0 Ru
Ru6 1.0000000000 0.7500000000 0.3498912508 0.9396147224  Biso 1.0 Ru
Ru7 1.0000000000 0.7500000000 0.8498912508 0.5603852776  Biso 1.0 Ru
Ru8 1.0000000000 0.2500000000 0.6501087492 0.0603852776  Biso 1.0 Ru
Zr9 1.0000000000 0.2500000000 0.0214798629 0.8180760696  Biso 1.0 Zr
Zr10 1.0000000000 0.7500000000 0.4785201371 0.3180760696  Biso 1.0 Zr
Zr11 1.0000000000 0.7500000000 0.9785201371 0.1819239304  Biso 1.0 Zr
Zr12 1.0000000000 0.2500000000 0.5214798629 0.6819239304  Biso 1.0 Zr
