# AFLOW.org Repositories
# P2Pt5   [MCLC,MCLC1,mS28] (STD_PRIM doi:
data_P2Pt5
_pd_phase_name P2Pt5
_cell_length_a  6.0680478386
_cell_length_b  6.0680478386
_cell_length_c  7.5097642551
_cell_angle_alpha  81.3308678374
_cell_angle_beta  81.3308678374
_cell_angle_gamma  53.1192454687
_symmetry_space_group_name_H-M  'P1'
_symmetry_Int_Tables_Number  1
loop_
_symmetry_equiv_pos_site_id
_symmetry_equiv_pos_as_xyz
  1  x,y,z
loop_
 _atom_site_label
 _atom_site_occupancy
 _atom_site_fract_x
 _atom_site_fract_y
 _atom_site_fract_z
 _atom_site_thermal_displace_type
 _atom_site_B_iso_or_equiv
 _atom_site_type_symbol
P1 1.0000000000 0.7504558319 0.5658497581 0.7274260875  Biso 1.0 P
P2 1.0000000000 0.4341502419 0.2495441681 0.7725739125  Biso 1.0 P
P3 1.0000000000 0.2495441681 0.4341502419 0.2725739125  Biso 1.0 P
P4 1.0000000000 0.5658497581 0.7504558319 0.2274260875  Biso 1.0 P
Pt5 1.0000000000 0.1148501547 0.8851498453 0.2500000000  Biso 1.0 Pt
Pt6 1.0000000000 0.8851498453 0.1148501547 0.7500000000  Biso 1.0 Pt
Pt7 1.0000000000 0.8438387588 0.3940543277 0.0334944980  Biso 1.0 Pt
Pt8 1.0000000000 0.6059456723 0.1561612412 0.4665055020  Biso 1.0 Pt
Pt9 1.0000000000 0.1561612412 0.6059456723 0.9665055020  Biso 1.0 Pt
Pt10 1.0000000000 0.3940543277 0.8438387588 0.5334944980  Biso 1.0 Pt
Pt11 1.0000000000 0.0771226653 0.6315155642 0.5973283171  Biso 1.0 Pt
Pt12 1.0000000000 0.3684844358 0.9228773347 0.9026716829  Biso 1.0 Pt
Pt13 1.0000000000 0.9228773347 0.3684844358 0.4026716829  Biso 1.0 Pt
Pt14 1.0000000000 0.6315155642 0.0771226653 0.0973283171  Biso 1.0 Pt
