# AFLOW.org Repositories
# P2Ru1   [ORC,ORC,oP6] (STD_PRIM doi:10.1
data_P2Ru1
_pd_phase_name P2Ru1
_cell_length_a  2.8979441697
_cell_length_b  5.1276787035
_cell_length_c  5.9368486089
_cell_angle_alpha  90.0000000000
_cell_angle_beta  90.0000000000
_cell_angle_gamma  90.0000000000
_symmetry_space_group_name_H-M  'P1'
_symmetry_Int_Tables_Number  1
loop_
_symmetry_equiv_pos_site_id
_symmetry_equiv_pos_as_xyz
  1  x,y,z
loop_
 _atom_site_label
 _atom_site_occupancy
 _atom_site_fract_x
 _atom_site_fract_y
 _atom_site_fract_z
 _atom_site_thermal_displace_type
 _atom_site_B_iso_or_equiv
 _atom_site_type_symbol
P1 1.0000000000 0.0000000000 0.1620274520 0.6261437390  Biso 1.0 P
P2 1.0000000000 0.0000000000 0.8379725480 0.3738562610  Biso 1.0 P
P3 1.0000000000 0.5000000000 0.3379725480 0.1261437390  Biso 1.0 P
P4 1.0000000000 0.5000000000 0.6620274520 0.8738562610  Biso 1.0 P
Ru5 1.0000000000 0.0000000000 0.0000000000 0.0000000000  Biso 1.0 Ru
Ru6 1.0000000000 0.5000000000 0.5000000000 0.5000000000  Biso 1.0 Ru
