# AFLOW.org Repositories
# P2Sc3   [ORC,ORC,oP20] (STD_PRIM doi:10.
data_P2Sc3
_pd_phase_name P2Sc3
_cell_length_a  3.8144328514
_cell_length_b  7.1212912241
_cell_length_c  14.6417250934
_cell_angle_alpha  90.0000000000
_cell_angle_beta  90.0000000000
_cell_angle_gamma  90.0000000000
_symmetry_space_group_name_H-M  'P1'
_symmetry_Int_Tables_Number  1
loop_
_symmetry_equiv_pos_site_id
_symmetry_equiv_pos_as_xyz
  1  x,y,z
loop_
 _atom_site_label
 _atom_site_occupancy
 _atom_site_fract_x
 _atom_site_fract_y
 _atom_site_fract_z
 _atom_site_thermal_displace_type
 _atom_site_B_iso_or_equiv
 _atom_site_type_symbol
P1 1.0000000000 0.2500000000 0.1123531429 0.7925936962  Biso 1.0 P
P2 1.0000000000 0.7500000000 0.3876468571 0.2925936962  Biso 1.0 P
P3 1.0000000000 0.7500000000 0.8876468571 0.2074063038  Biso 1.0 P
P4 1.0000000000 0.2500000000 0.6123531429 0.7074063038  Biso 1.0 P
P5 1.0000000000 0.2500000000 0.2526079046 0.0423118078  Biso 1.0 P
P6 1.0000000000 0.7500000000 0.2473920954 0.5423118078  Biso 1.0 P
P7 1.0000000000 0.7500000000 0.7473920954 0.9576881922  Biso 1.0 P
P8 1.0000000000 0.2500000000 0.7526079046 0.4576881922  Biso 1.0 P
Sc9 1.0000000000 0.2500000000 0.0061405146 0.6021907529  Biso 1.0 Sc
Sc10 1.0000000000 0.7500000000 0.4938594854 0.1021907529  Biso 1.0 Sc
Sc11 1.0000000000 0.7500000000 0.9938594854 0.3978092471  Biso 1.0 Sc
Sc12 1.0000000000 0.2500000000 0.5061405146 0.8978092471  Biso 1.0 Sc
Sc13 1.0000000000 0.2500000000 0.1706677706 0.2241587157  Biso 1.0 Sc
Sc14 1.0000000000 0.7500000000 0.3293322294 0.7241587157  Biso 1.0 Sc
Sc15 1.0000000000 0.7500000000 0.8293322294 0.7758412843  Biso 1.0 Sc
Sc16 1.0000000000 0.2500000000 0.6706677706 0.2758412843  Biso 1.0 Sc
Sc17 1.0000000000 0.2500000000 0.8660028700 0.0696506942  Biso 1.0 Sc
Sc18 1.0000000000 0.7500000000 0.6339971300 0.5696506942  Biso 1.0 Sc
Sc19 1.0000000000 0.7500000000 0.1339971300 0.9303493058  Biso 1.0 Sc
Sc20 1.0000000000 0.2500000000 0.3660028700 0.4303493058  Biso 1.0 Sc
