# AFLOW.org Repositories
# Pb0.33S2Ta1   [HEX,HEX,hP20] (STD_PRIM d
data_Pb0.33S2Ta1
_pd_phase_name Pb0.33S2Ta1
_cell_length_a  5.8458438392
_cell_length_b  5.8458438392
_cell_length_c  15.0563017816
_cell_angle_alpha  90.0000000000
_cell_angle_beta  90.0000000000
_cell_angle_gamma  120.0000000000
_symmetry_space_group_name_H-M  'P1'
_symmetry_Int_Tables_Number  1
loop_
_symmetry_equiv_pos_site_id
_symmetry_equiv_pos_as_xyz
  1  x,y,z
loop_
 _atom_site_label
 _atom_site_occupancy
 _atom_site_fract_x
 _atom_site_fract_y
 _atom_site_fract_z
 _atom_site_thermal_displace_type
 _atom_site_B_iso_or_equiv
 _atom_site_type_symbol
Pb1 1.0000000000 0.0000000000 0.0000000000 0.2500000000  Biso 1.0 Pb
Pb2 1.0000000000 0.0000000000 0.0000000000 0.7500000000  Biso 1.0 Pb
S3 1.0000000000 0.3363630249 0.0000000000 0.1040938584  Biso 1.0 S
S4 1.0000000000 0.0000000000 0.3363639702 0.1040928149  Biso 1.0 S
S5 1.0000000000 0.6636360298 0.6636360298 0.1040928149  Biso 1.0 S
S6 1.0000000000 0.6636369751 0.0000000000 0.6040938584  Biso 1.0 S
S7 1.0000000000 0.0000000000 0.6636360298 0.6040928149  Biso 1.0 S
S8 1.0000000000 0.3363639702 0.3363639702 0.6040928149  Biso 1.0 S
S9 1.0000000000 0.3363630249 0.0000000000 0.8959061416  Biso 1.0 S
S10 1.0000000000 0.6636360298 0.6636360298 0.8959071851  Biso 1.0 S
S11 1.0000000000 0.0000000000 0.3363639702 0.8959071851  Biso 1.0 S
S12 1.0000000000 0.6636369751 0.0000000000 0.3959061416  Biso 1.0 S
S13 1.0000000000 0.3363639702 0.3363639702 0.3959071851  Biso 1.0 S
S14 1.0000000000 0.0000000000 0.6636360298 0.3959071851  Biso 1.0 S
Ta15 1.0000000000 0.0000000000 0.0000000000 0.0000000000  Biso 1.0 Ta
Ta16 1.0000000000 0.0000000000 0.0000000000 0.5000000000  Biso 1.0 Ta
Ta17 1.0000000000 0.6666657361 0.3333330619 0.0000000000  Biso 1.0 Ta
Ta18 1.0000000000 0.3333342639 0.6666669381 0.5000000000  Biso 1.0 Ta
Ta19 1.0000000000 0.3333326743 0.6666669381 0.0000000000  Biso 1.0 Ta
Ta20 1.0000000000 0.6666673257 0.3333330619 0.5000000000  Biso 1.0 Ta
