# AFLOW.org Repositories
# Pd1Se2   [ORC,ORC,oP12] (STD_PRIM doi:10
data_Pd1Se2
_pd_phase_name Pd1Se2
_cell_length_a  5.7879650441
_cell_length_b  5.9340208648
_cell_length_c  8.2446907615
_cell_angle_alpha  90.0000000000
_cell_angle_beta  90.0000000000
_cell_angle_gamma  90.0000000000
_symmetry_space_group_name_H-M  'P1'
_symmetry_Int_Tables_Number  1
loop_
_symmetry_equiv_pos_site_id
_symmetry_equiv_pos_as_xyz
  1  x,y,z
loop_
 _atom_site_label
 _atom_site_occupancy
 _atom_site_fract_x
 _atom_site_fract_y
 _atom_site_fract_z
 _atom_site_thermal_displace_type
 _atom_site_B_iso_or_equiv
 _atom_site_type_symbol
Pd1 1.0000000000 0.0000000000 0.0000000000 0.0000000000  Biso 1.0 Pd
Pd2 1.0000000000 0.5000000000 0.0000000000 0.5000000000  Biso 1.0 Pd
Pd3 1.0000000000 0.0000000000 0.5000000000 0.5000000000  Biso 1.0 Pd
Pd4 1.0000000000 0.5000000000 0.5000000000 0.0000000000  Biso 1.0 Pd
Se5 1.0000000000 0.1098055378 0.1175654218 0.4098246363  Biso 1.0 Se
Se6 1.0000000000 0.3901944622 0.8824345782 0.9098246363  Biso 1.0 Se
Se7 1.0000000000 0.8901944622 0.6175654218 0.0901753637  Biso 1.0 Se
Se8 1.0000000000 0.6098055378 0.3824345782 0.5901753637  Biso 1.0 Se
Se9 1.0000000000 0.8901944622 0.8824345782 0.5901753637  Biso 1.0 Se
Se10 1.0000000000 0.6098055378 0.1175654218 0.0901753637  Biso 1.0 Se
Se11 1.0000000000 0.1098055378 0.3824345782 0.9098246363  Biso 1.0 Se
Se12 1.0000000000 0.3901944622 0.6175654218 0.4098246363  Biso 1.0 Se
