# AFLOW.org Repositories
# Pd2Zr1   [BCT,BCT2,tI6] (STD_PRIM doi:10
data_Pd2Zr1
_pd_phase_name Pd2Zr1
_cell_length_a  4.9891402337
_cell_length_b  4.9891402337
_cell_length_c  4.9891402337
_cell_angle_alpha  139.4441158084
_cell_angle_beta  139.4441158084
_cell_angle_gamma  58.6983101478
_symmetry_space_group_name_H-M  'P1'
_symmetry_Int_Tables_Number  1
loop_
_symmetry_equiv_pos_site_id
_symmetry_equiv_pos_as_xyz
  1  x,y,z
loop_
 _atom_site_label
 _atom_site_occupancy
 _atom_site_fract_x
 _atom_site_fract_y
 _atom_site_fract_z
 _atom_site_thermal_displace_type
 _atom_site_B_iso_or_equiv
 _atom_site_type_symbol
Pd1 1.0000000000 0.3371718381 0.3371718381 0.0000000000  Biso 1.0 Pd
Pd2 1.0000000000 0.6628281619 0.6628281619 0.0000000000  Biso 1.0 Pd
Zr3 1.0000000000 0.0000000000 0.0000000000 0.0000000000  Biso 1.0 Zr
