# AFLOW.org Repositories
# Pd3S1   [ORCC,ORCC,oS16] (STD_PRIM doi:1
data_Pd3S1
_pd_phase_name Pd3S1
_cell_length_a  4.6161033379
_cell_length_b  4.6161033379
_cell_length_c  6.2895528694
_cell_angle_alpha  90.0000000000
_cell_angle_beta  90.0000000000
_cell_angle_gamma  108.3252656866
_symmetry_space_group_name_H-M  'P1'
_symmetry_Int_Tables_Number  1
loop_
_symmetry_equiv_pos_site_id
_symmetry_equiv_pos_as_xyz
  1  x,y,z
loop_
 _atom_site_label
 _atom_site_occupancy
 _atom_site_fract_x
 _atom_site_fract_y
 _atom_site_fract_z
 _atom_site_thermal_displace_type
 _atom_site_B_iso_or_equiv
 _atom_site_type_symbol
Pd1 1.0000000000 0.9989190688 0.0010809312 0.0000000000  Biso 1.0 Pd
Pd2 1.0000000000 0.9989190688 0.0010809312 0.5000000000  Biso 1.0 Pd
Pd3 1.0000000000 0.8440526437 0.4559784765 0.2500000000  Biso 1.0 Pd
Pd4 1.0000000000 0.5440215235 0.1559473563 0.7500000000  Biso 1.0 Pd
Pd5 1.0000000000 0.4530577607 0.8473374796 0.2500000000  Biso 1.0 Pd
Pd6 1.0000000000 0.1526625204 0.5469422393 0.7500000000  Biso 1.0 Pd
S7 1.0000000000 0.3110064566 0.3134390427 0.2500000000  Biso 1.0 S
S8 1.0000000000 0.6865609573 0.6889935434 0.7500000000  Biso 1.0 S
