# AFLOW.org Repositories
# Pt1S1Sb1   [CUB,CUB,cP12] (STD_PRIM doi:
data_Pt1S1Sb1
_pd_phase_name Pt1S1Sb1
_cell_length_a  6.2680362671
_cell_length_b  6.2680362671
_cell_length_c  6.2680362671
_cell_angle_alpha  90.0000000000
_cell_angle_beta  90.0000000000
_cell_angle_gamma  90.0000000000
_symmetry_space_group_name_H-M  'P1'
_symmetry_Int_Tables_Number  1
loop_
_symmetry_equiv_pos_site_id
_symmetry_equiv_pos_as_xyz
  1  x,y,z
loop_
 _atom_site_label
 _atom_site_occupancy
 _atom_site_fract_x
 _atom_site_fract_y
 _atom_site_fract_z
 _atom_site_thermal_displace_type
 _atom_site_B_iso_or_equiv
 _atom_site_type_symbol
Pt1 1.0000000000 0.0089842819 0.0089842819 0.9910157181  Biso 1.0 Pt
Pt2 1.0000000000 0.4910157181 0.9910157181 0.4910157181  Biso 1.0 Pt
Pt3 1.0000000000 0.9910157181 0.5089842819 0.5089842819  Biso 1.0 Pt
Pt4 1.0000000000 0.5089842819 0.4910157181 0.0089842819  Biso 1.0 Pt
S5 1.0000000000 0.6116232675 0.6116232675 0.3883767325  Biso 1.0 S
S6 1.0000000000 0.8883767325 0.3883767325 0.8883767325  Biso 1.0 S
S7 1.0000000000 0.3883767325 0.1116232675 0.1116232675  Biso 1.0 S
S8 1.0000000000 0.1116232675 0.8883767325 0.6116232675  Biso 1.0 S
Sb9 1.0000000000 0.3768782060 0.3768782060 0.6231217940  Biso 1.0 Sb
Sb10 1.0000000000 0.1231217940 0.6231217940 0.1231217940  Biso 1.0 Sb
Sb11 1.0000000000 0.6231217940 0.8768782060 0.8768782060  Biso 1.0 Sb
Sb12 1.0000000000 0.8768782060 0.1231217940 0.3768782060  Biso 1.0 Sb
