# AFLOW.org Repositories
# Pt1Y2   [ORC,ORC,oP12] (STD_PRIM doi:10.
data_Pt1Y2
_pd_phase_name Pt1Y2
_cell_length_a  4.7934859880
_cell_length_b  7.1615445496
_cell_length_c  8.7936260641
_cell_angle_alpha  90.0000000000
_cell_angle_beta  90.0000000000
_cell_angle_gamma  90.0000000000
_symmetry_space_group_name_H-M  'P1'
_symmetry_Int_Tables_Number  1
loop_
_symmetry_equiv_pos_site_id
_symmetry_equiv_pos_as_xyz
  1  x,y,z
loop_
 _atom_site_label
 _atom_site_occupancy
 _atom_site_fract_x
 _atom_site_fract_y
 _atom_site_fract_z
 _atom_site_thermal_displace_type
 _atom_site_B_iso_or_equiv
 _atom_site_type_symbol
Pt1 1.0000000000 0.2500000000 0.2595804653 0.9066338357  Biso 1.0 Pt
Pt2 1.0000000000 0.7500000000 0.2404195347 0.4066338357  Biso 1.0 Pt
Pt3 1.0000000000 0.7500000000 0.7404195347 0.0933661643  Biso 1.0 Pt
Pt4 1.0000000000 0.2500000000 0.7595804653 0.5933661643  Biso 1.0 Pt
Y5 1.0000000000 0.2500000000 0.8571508930 0.9188101062  Biso 1.0 Y
Y6 1.0000000000 0.7500000000 0.6428491070 0.4188101062  Biso 1.0 Y
Y7 1.0000000000 0.7500000000 0.1428491070 0.0811898938  Biso 1.0 Y
Y8 1.0000000000 0.2500000000 0.3571508930 0.5811898938  Biso 1.0 Y
Y9 1.0000000000 0.2500000000 0.9893648961 0.3332639250  Biso 1.0 Y
Y10 1.0000000000 0.7500000000 0.5106351039 0.8332639250  Biso 1.0 Y
Y11 1.0000000000 0.7500000000 0.0106351039 0.6667360750  Biso 1.0 Y
Y12 1.0000000000 0.2500000000 0.4893648961 0.1667360750  Biso 1.0 Y
