# AFLOW.org Repositories
# Pt2Si2Y1   [TET,TET,tP10] (STD_PRIM doi:
data_Pt2Si2Y1
_pd_phase_name Pt2Si2Y1
_cell_length_a  4.1994934061
_cell_length_b  4.1994934061
_cell_length_c  9.7723344632
_cell_angle_alpha  90.0000000000
_cell_angle_beta  90.0000000000
_cell_angle_gamma  90.0000000000
_symmetry_space_group_name_H-M  'P1'
_symmetry_Int_Tables_Number  1
loop_
_symmetry_equiv_pos_site_id
_symmetry_equiv_pos_as_xyz
  1  x,y,z
loop_
 _atom_site_label
 _atom_site_occupancy
 _atom_site_fract_x
 _atom_site_fract_y
 _atom_site_fract_z
 _atom_site_thermal_displace_type
 _atom_site_B_iso_or_equiv
 _atom_site_type_symbol
Pt1 1.0000000000 0.7500000000 0.2500000000 0.0000000000  Biso 1.0 Pt
Pt2 1.0000000000 0.2500000000 0.7500000000 0.0000000000  Biso 1.0 Pt
Pt3 1.0000000000 0.2500000000 0.2500000000 0.3763410355  Biso 1.0 Pt
Pt4 1.0000000000 0.7500000000 0.7500000000 0.6236589645  Biso 1.0 Pt
Si5 1.0000000000 0.7500000000 0.2500000000 0.5000000000  Biso 1.0 Si
Si6 1.0000000000 0.2500000000 0.7500000000 0.5000000000  Biso 1.0 Si
Si7 1.0000000000 0.2500000000 0.2500000000 0.1320556107  Biso 1.0 Si
Si8 1.0000000000 0.7500000000 0.7500000000 0.8679443893  Biso 1.0 Si
Y9 1.0000000000 0.2500000000 0.2500000000 0.7474166837  Biso 1.0 Y
Y10 1.0000000000 0.7500000000 0.7500000000 0.2525833163  Biso 1.0 Y
