# AFLOW.org Repositories
# Pt2Ta1   [ORCC,ORCC,oS12] (STD_PRIM doi:
data_Pt2Ta1
_pd_phase_name Pt2Ta1
_cell_length_a  4.8649202214
_cell_length_b  4.8649202214
_cell_length_c  4.8086510838
_cell_angle_alpha  90.0000000000
_cell_angle_beta  90.0000000000
_cell_angle_gamma  120.6344595352
_symmetry_space_group_name_H-M  'P1'
_symmetry_Int_Tables_Number  1
loop_
_symmetry_equiv_pos_site_id
_symmetry_equiv_pos_as_xyz
  1  x,y,z
loop_
 _atom_site_label
 _atom_site_occupancy
 _atom_site_fract_x
 _atom_site_fract_y
 _atom_site_fract_z
 _atom_site_thermal_displace_type
 _atom_site_B_iso_or_equiv
 _atom_site_type_symbol
Pt1 1.0000000000 0.5747644866 0.8989896444 0.7500000000  Biso 1.0 Pt
Pt2 1.0000000000 0.4252355134 0.1010103556 0.2500000000  Biso 1.0 Pt
Pt3 1.0000000000 0.8989896444 0.5747644866 0.7500000000  Biso 1.0 Pt
Pt4 1.0000000000 0.1010103556 0.4252355134 0.2500000000  Biso 1.0 Pt
Ta5 1.0000000000 0.2419593720 0.2419593720 0.7500000000  Biso 1.0 Ta
Ta6 1.0000000000 0.7580406280 0.7580406280 0.2500000000  Biso 1.0 Ta
