# AFLOW.org Repositories
# Pt5Se4   [MCL,MCL,mP18] (STD_PRIM doi:10
data_Pt5Se4
_pd_phase_name Pt5Se4
_cell_length_a  4.6622652475
_cell_length_b  6.6357899273
_cell_length_c  11.2336598697
_cell_angle_alpha  78.5670053482
_cell_angle_beta  90.0000000000
_cell_angle_gamma  90.0000000000
_symmetry_space_group_name_H-M  'P1'
_symmetry_Int_Tables_Number  1
loop_
_symmetry_equiv_pos_site_id
_symmetry_equiv_pos_as_xyz
  1  x,y,z
loop_
 _atom_site_label
 _atom_site_occupancy
 _atom_site_fract_x
 _atom_site_fract_y
 _atom_site_fract_z
 _atom_site_thermal_displace_type
 _atom_site_B_iso_or_equiv
 _atom_site_type_symbol
Pt1 1.0000000000 0.3319995273 0.6685918886 0.0021937328  Biso 1.0 Pt
Pt2 1.0000000000 0.8319995273 0.3314081114 0.4978062672  Biso 1.0 Pt
Pt3 1.0000000000 0.6680004727 0.3314081114 0.9978062672  Biso 1.0 Pt
Pt4 1.0000000000 0.1680004727 0.6685918886 0.5021937328  Biso 1.0 Pt
Pt5 1.0000000000 0.6635032272 0.7775345460 0.1726532514  Biso 1.0 Pt
Pt6 1.0000000000 0.1635032272 0.2224654540 0.3273467486  Biso 1.0 Pt
Pt7 1.0000000000 0.3364967728 0.2224654540 0.8273467486  Biso 1.0 Pt
Pt8 1.0000000000 0.8364967728 0.7775345460 0.6726532514  Biso 1.0 Pt
Pt9 1.0000000000 0.0000000000 0.0000000000 0.0000000000  Biso 1.0 Pt
Pt10 1.0000000000 0.5000000000 0.0000000000 0.5000000000  Biso 1.0 Pt
Se11 1.0000000000 0.3653471097 0.0886078824 0.1379663833  Biso 1.0 Se
Se12 1.0000000000 0.8653471097 0.9113921176 0.3620336167  Biso 1.0 Se
Se13 1.0000000000 0.6346528903 0.9113921176 0.8620336167  Biso 1.0 Se
Se14 1.0000000000 0.1346528903 0.0886078824 0.6379663833  Biso 1.0 Se
Se15 1.0000000000 0.9622464528 0.4855389530 0.1444002079  Biso 1.0 Se
Se16 1.0000000000 0.4622464528 0.5144610470 0.3555997921  Biso 1.0 Se
Se17 1.0000000000 0.0377535472 0.5144610470 0.8555997921  Biso 1.0 Se
Se18 1.0000000000 0.5377535472 0.4855389530 0.6444002079  Biso 1.0 Se
