# AFLOW.org Repositories
# Rb2S2   [ORCI,ORCI,oI8] (STD_PRIM doi:10
data_Rb2S2
_pd_phase_name Rb2S2
_cell_length_a  6.1253177586
_cell_length_b  6.1253177586
_cell_length_c  6.1253177586
_cell_angle_alpha  131.1158490505
_cell_angle_beta  111.5033930119
_cell_angle_gamma  88.6167458226
_symmetry_space_group_name_H-M  'P1'
_symmetry_Int_Tables_Number  1
loop_
_symmetry_equiv_pos_site_id
_symmetry_equiv_pos_as_xyz
  1  x,y,z
loop_
 _atom_site_label
 _atom_site_occupancy
 _atom_site_fract_x
 _atom_site_fract_y
 _atom_site_fract_z
 _atom_site_thermal_displace_type
 _atom_site_B_iso_or_equiv
 _atom_site_type_symbol
Rb1 1.0000000000 0.2226317124 0.7226317124 0.5000000000  Biso 1.0 Rb
Rb2 1.0000000000 0.7773682876 0.2773682876 0.5000000000  Biso 1.0 Rb
S3 1.0000000000 0.1543201859 0.0000000000 0.1543201859  Biso 1.0 S
S4 1.0000000000 0.8456798141 0.0000000000 0.8456798141  Biso 1.0 S
