# AFLOW.org Repositories
# Rb2Te1   [HEX,HEX,hP6] (STD_PRIM doi:10.
data_Rb2Te1
_pd_phase_name Rb2Te1
_cell_length_a  6.1417297117
_cell_length_b  6.1417297117
_cell_length_c  8.1273928641
_cell_angle_alpha  90.0000000000
_cell_angle_beta  90.0000000000
_cell_angle_gamma  120.0000000000
_symmetry_space_group_name_H-M  'P1'
_symmetry_Int_Tables_Number  1
loop_
_symmetry_equiv_pos_site_id
_symmetry_equiv_pos_as_xyz
  1  x,y,z
loop_
 _atom_site_label
 _atom_site_occupancy
 _atom_site_fract_x
 _atom_site_fract_y
 _atom_site_fract_z
 _atom_site_thermal_displace_type
 _atom_site_B_iso_or_equiv
 _atom_site_type_symbol
Rb1 1.0000000000 0.0000000000 0.0000000000 0.0000000000  Biso 1.0 Rb
Rb2 1.0000000000 0.0000000000 0.0000000000 0.5000000000  Biso 1.0 Rb
Rb3 1.0000000000 0.3333414138 0.6666707069 0.7500000000  Biso 1.0 Rb
Rb4 1.0000000000 0.6666585862 0.3333292931 0.2500000000  Biso 1.0 Rb
Te5 1.0000000000 0.3333579878 0.6666789939 0.2500000000  Biso 1.0 Te
Te6 1.0000000000 0.6666420122 0.3333210061 0.7500000000  Biso 1.0 Te
