# AFLOW.org Repositories
# Re1Si2   [BCT,BCT2,tI6] (STD_PRIM doi:10
data_Re1Si2
_pd_phase_name Re1Si2
_cell_length_a  4.5352731525
_cell_length_b  4.5352731525
_cell_length_c  4.5352731525
_cell_angle_alpha  138.7809177602
_cell_angle_beta  138.7809177602
_cell_angle_gamma  59.7090671308
_symmetry_space_group_name_H-M  'P1'
_symmetry_Int_Tables_Number  1
loop_
_symmetry_equiv_pos_site_id
_symmetry_equiv_pos_as_xyz
  1  x,y,z
loop_
 _atom_site_label
 _atom_site_occupancy
 _atom_site_fract_x
 _atom_site_fract_y
 _atom_site_fract_z
 _atom_site_thermal_displace_type
 _atom_site_B_iso_or_equiv
 _atom_site_type_symbol
Re1 1.0000000000 0.0000000000 0.0000000000 0.0000000000  Biso 1.0 Re
Si2 1.0000000000 0.3312763037 0.3312763037 0.0000000000  Biso 1.0 Si
Si3 1.0000000000 0.6687236963 0.6687236963 0.0000000000  Biso 1.0 Si
