# AFLOW.org Repositories
# Rh1Sn2   [BCT,BCT1,tI12] (STD_PRIM doi:1
data_Rh1Sn2
_pd_phase_name Rh1Sn2
_cell_length_a  5.4640222089
_cell_length_b  5.4640222089
_cell_length_c  5.4640222089
_cell_angle_alpha  106.3864945388
_cell_angle_beta  106.3864945388
_cell_angle_gamma  115.8342589795
_symmetry_space_group_name_H-M  'P1'
_symmetry_Int_Tables_Number  1
loop_
_symmetry_equiv_pos_site_id
_symmetry_equiv_pos_as_xyz
  1  x,y,z
loop_
 _atom_site_label
 _atom_site_occupancy
 _atom_site_fract_x
 _atom_site_fract_y
 _atom_site_fract_z
 _atom_site_thermal_displace_type
 _atom_site_B_iso_or_equiv
 _atom_site_type_symbol
Rh1 1.0000000000 0.7500000000 0.7500000000 0.0000000000  Biso 1.0 Rh
Rh2 1.0000000000 0.2500000000 0.2500000000 0.0000000000  Biso 1.0 Rh
Sn3 1.0000000000 0.8362381124 0.3362381124 0.1724762247  Biso 1.0 Sn
Sn4 1.0000000000 0.1637618876 0.6637618876 0.8275237753  Biso 1.0 Sn
Sn5 1.0000000000 0.6637618876 0.8362381124 0.5000000000  Biso 1.0 Sn
Sn6 1.0000000000 0.3362381124 0.1637618876 0.5000000000  Biso 1.0 Sn
