# AFLOW.org Repositories
# Rh1Sn1Zr1   [HEX,HEX,hP18] (STD_PRIM doi
data_Rh1Sn1Zr1
_pd_phase_name Rh1Sn1Zr1
_cell_length_a  7.4398927307
_cell_length_b  7.4398927307
_cell_length_c  7.2872116810
_cell_angle_alpha  90.0000000000
_cell_angle_beta  90.0000000000
_cell_angle_gamma  120.0000000000
_symmetry_space_group_name_H-M  'P1'
_symmetry_Int_Tables_Number  1
loop_
_symmetry_equiv_pos_site_id
_symmetry_equiv_pos_as_xyz
  1  x,y,z
loop_
 _atom_site_label
 _atom_site_occupancy
 _atom_site_fract_x
 _atom_site_fract_y
 _atom_site_fract_z
 _atom_site_thermal_displace_type
 _atom_site_B_iso_or_equiv
 _atom_site_type_symbol
Rh1 1.0000000000 0.3333235821 0.6666480034 0.9658249406  Biso 1.0 Rh
Rh2 1.0000000000 0.3333235821 0.6666480034 0.5341750594  Biso 1.0 Rh
Rh3 1.0000000000 0.6666755787 0.3333519966 0.0341750594  Biso 1.0 Rh
Rh4 1.0000000000 0.6666755787 0.3333519966 0.4658249406  Biso 1.0 Rh
Rh5 1.0000000000 0.0000000000 0.0000000000 0.7500000000  Biso 1.0 Rh
Rh6 1.0000000000 0.0000000000 0.0000000000 0.2500000000  Biso 1.0 Rh
Sn7 1.0000000000 0.0000000000 0.7296077691 0.0000000000  Biso 1.0 Sn
Sn8 1.0000000000 0.2703922309 0.2703922309 0.0000000000  Biso 1.0 Sn
Sn9 1.0000000000 0.7295964218 0.0000000000 0.0000000000  Biso 1.0 Sn
Sn10 1.0000000000 0.0000000000 0.7296077691 0.4999999713  Biso 1.0 Sn
Sn11 1.0000000000 0.2703922309 0.2703922309 0.5000000287  Biso 1.0 Sn
Sn12 1.0000000000 0.7295964218 0.0000000000 0.5000000000  Biso 1.0 Sn
Zr13 1.0000000000 0.9827242103 0.3893001176 0.7500000000  Biso 1.0 Zr
Zr14 1.0000000000 0.6106993594 0.5934201624 0.7500000000  Biso 1.0 Zr
Zr15 1.0000000000 0.4065753746 0.0172712690 0.7500000000  Biso 1.0 Zr
Zr16 1.0000000000 0.5934240926 0.6106998824 0.2500000000  Biso 1.0 Zr
Zr17 1.0000000000 0.0172791970 0.4065798376 0.2500000000  Biso 1.0 Zr
Zr18 1.0000000000 0.3893041056 0.9827287310 0.2500000000  Biso 1.0 Zr
