# AFLOW.org Repositories
# Rh1Sb3   [BCC,BCC,cI32] (STD_PRIM doi:10
data_Rh1Sb3
_pd_phase_name Rh1Sb3
_cell_length_a  8.1027566721
_cell_length_b  8.1027566721
_cell_length_c  8.1027566721
_cell_angle_alpha  109.4712206345
_cell_angle_beta  109.4712206345
_cell_angle_gamma  109.4712206345
_symmetry_space_group_name_H-M  'P1'
_symmetry_Int_Tables_Number  1
loop_
_symmetry_equiv_pos_site_id
_symmetry_equiv_pos_as_xyz
  1  x,y,z
loop_
 _atom_site_label
 _atom_site_occupancy
 _atom_site_fract_x
 _atom_site_fract_y
 _atom_site_fract_z
 _atom_site_thermal_displace_type
 _atom_site_B_iso_or_equiv
 _atom_site_type_symbol
Rh1 1.0000000000 0.5000000000 0.5000000000 0.5000000000  Biso 1.0 Rh
Rh2 1.0000000000 0.0000000000 0.0000000000 0.5000000000  Biso 1.0 Rh
Rh3 1.0000000000 0.0000000000 0.5000000000 0.0000000000  Biso 1.0 Rh
Rh4 1.0000000000 0.5000000000 0.0000000000 0.0000000000  Biso 1.0 Rh
Sb5 1.0000000000 0.4949144211 0.1550463344 0.3398680867  Biso 1.0 Sb
Sb6 1.0000000000 0.8151782477 0.1550463344 0.6601319133  Biso 1.0 Sb
Sb7 1.0000000000 0.1848217523 0.8449536656 0.3398680867  Biso 1.0 Sb
Sb8 1.0000000000 0.5050855789 0.8449536656 0.6601319133  Biso 1.0 Sb
Sb9 1.0000000000 0.3398680867 0.4949144211 0.1550463344  Biso 1.0 Sb
Sb10 1.0000000000 0.6601319133 0.8151782477 0.1550463344  Biso 1.0 Sb
Sb11 1.0000000000 0.3398680867 0.1848217523 0.8449536656  Biso 1.0 Sb
Sb12 1.0000000000 0.6601319133 0.5050855789 0.8449536656  Biso 1.0 Sb
Sb13 1.0000000000 0.1550463344 0.3398680867 0.4949144211  Biso 1.0 Sb
Sb14 1.0000000000 0.1550463344 0.6601319133 0.8151782477  Biso 1.0 Sb
Sb15 1.0000000000 0.8449536656 0.3398680867 0.1848217523  Biso 1.0 Sb
Sb16 1.0000000000 0.8449536656 0.6601319133 0.5050855789  Biso 1.0 Sb
