# AFLOW.org Repositories
# Rh1S1Sb1   [CUB,CUB,cP12] (STD_PRIM doi:
data_Rh1S1Sb1
_pd_phase_name Rh1S1Sb1
_cell_length_a  6.0965526162
_cell_length_b  6.0965526162
_cell_length_c  6.0965526162
_cell_angle_alpha  90.0000000000
_cell_angle_beta  90.0000000000
_cell_angle_gamma  90.0000000000
_symmetry_space_group_name_H-M  'P1'
_symmetry_Int_Tables_Number  1
loop_
_symmetry_equiv_pos_site_id
_symmetry_equiv_pos_as_xyz
  1  x,y,z
loop_
 _atom_site_label
 _atom_site_occupancy
 _atom_site_fract_x
 _atom_site_fract_y
 _atom_site_fract_z
 _atom_site_thermal_displace_type
 _atom_site_B_iso_or_equiv
 _atom_site_type_symbol
Rh1 1.0000000000 0.0123393164 0.0123393164 0.9876606836  Biso 1.0 Rh
Rh2 1.0000000000 0.4876606836 0.9876606836 0.4876606836  Biso 1.0 Rh
Rh3 1.0000000000 0.9876606836 0.5123393164 0.5123393164  Biso 1.0 Rh
Rh4 1.0000000000 0.5123393164 0.4876606836 0.0123393164  Biso 1.0 Rh
S5 1.0000000000 0.6169540263 0.6169540263 0.3830459737  Biso 1.0 S
S6 1.0000000000 0.8830459737 0.3830459737 0.8830459737  Biso 1.0 S
S7 1.0000000000 0.3830459737 0.1169540263 0.1169540263  Biso 1.0 S
S8 1.0000000000 0.1169540263 0.8830459737 0.6169540263  Biso 1.0 S
Sb9 1.0000000000 0.3789528124 0.3789528124 0.6210471876  Biso 1.0 Sb
Sb10 1.0000000000 0.1210471876 0.6210471876 0.1210471876  Biso 1.0 Sb
Sb11 1.0000000000 0.6210471876 0.8789528124 0.8789528124  Biso 1.0 Sb
Sb12 1.0000000000 0.8789528124 0.1210471876 0.3789528124  Biso 1.0 Sb
