# AFLOW.org Repositories
# Rh2Si2Th1   [BCT,BCT2,tI10] (STD_PRIM do
data_Rh2Si2Th1
_pd_phase_name Rh2Si2Th1
_cell_length_a  5.9270453103
_cell_length_b  5.9270453103
_cell_length_c  5.9270453103
_cell_angle_alpha  139.2912915623
_cell_angle_beta  139.2912915623
_cell_angle_gamma  58.9309691888
_symmetry_space_group_name_H-M  'P1'
_symmetry_Int_Tables_Number  1
loop_
_symmetry_equiv_pos_site_id
_symmetry_equiv_pos_as_xyz
  1  x,y,z
loop_
 _atom_site_label
 _atom_site_occupancy
 _atom_site_fract_x
 _atom_site_fract_y
 _atom_site_fract_z
 _atom_site_thermal_displace_type
 _atom_site_B_iso_or_equiv
 _atom_site_type_symbol
Rh1 1.0000000000 0.2500000000 0.7500000000 0.5000000000  Biso 1.0 Rh
Rh2 1.0000000000 0.7500000000 0.2500000000 0.5000000000  Biso 1.0 Rh
Si3 1.0000000000 0.3764632912 0.3764632912 0.0000000000  Biso 1.0 Si
Si4 1.0000000000 0.6235367088 0.6235367088 0.0000000000  Biso 1.0 Si
Th5 1.0000000000 0.0000000000 0.0000000000 0.0000000000  Biso 1.0 Th
