# AFLOW.org Repositories
# Ru1   [HEX,HEX,hP2] (STD_PRIM doi:10.101
data_Ru1
_pd_phase_name Ru1
_cell_length_a  2.7184061015
_cell_length_b  2.7184061015
_cell_length_c  4.2837772585
_cell_angle_alpha  90.0000000000
_cell_angle_beta  90.0000000000
_cell_angle_gamma  120.0000000000
_symmetry_space_group_name_H-M  'P1'
_symmetry_Int_Tables_Number  1
loop_
_symmetry_equiv_pos_site_id
_symmetry_equiv_pos_as_xyz
  1  x,y,z
loop_
 _atom_site_label
 _atom_site_occupancy
 _atom_site_fract_x
 _atom_site_fract_y
 _atom_site_fract_z
 _atom_site_thermal_displace_type
 _atom_site_B_iso_or_equiv
 _atom_site_type_symbol
Ru1 1.0000000000 0.3333212645 0.6666787355 0.2500000000  Biso 1.0 Ru
Ru2 1.0000000000 0.6666787355 0.3333212645 0.7500000000  Biso 1.0 Ru
