# AFLOW.org Repositories
# Ru2Si1   [ORC,ORC,oP12] (STD_PRIM doi:10
data_Ru2Si1
_pd_phase_name Ru2Si1
_cell_length_a  4.0244022998
_cell_length_b  5.3136732415
_cell_length_c  7.4009617315
_cell_angle_alpha  90.0000000000
_cell_angle_beta  90.0000000000
_cell_angle_gamma  90.0000000000
_symmetry_space_group_name_H-M  'P1'
_symmetry_Int_Tables_Number  1
loop_
_symmetry_equiv_pos_site_id
_symmetry_equiv_pos_as_xyz
  1  x,y,z
loop_
 _atom_site_label
 _atom_site_occupancy
 _atom_site_fract_x
 _atom_site_fract_y
 _atom_site_fract_z
 _atom_site_thermal_displace_type
 _atom_site_B_iso_or_equiv
 _atom_site_type_symbol
Ru1 1.0000000000 0.2500000000 0.8338615579 0.9340245039  Biso 1.0 Ru
Ru2 1.0000000000 0.7500000000 0.6661384421 0.4340245039  Biso 1.0 Ru
Ru3 1.0000000000 0.7500000000 0.1661384421 0.0659754961  Biso 1.0 Ru
Ru4 1.0000000000 0.2500000000 0.3338615579 0.5659754961  Biso 1.0 Ru
Ru5 1.0000000000 0.2500000000 0.9873848196 0.2883106443  Biso 1.0 Ru
Ru6 1.0000000000 0.7500000000 0.5126151804 0.7883106443  Biso 1.0 Ru
Ru7 1.0000000000 0.7500000000 0.0126151804 0.7116893557  Biso 1.0 Ru
Ru8 1.0000000000 0.2500000000 0.4873848196 0.2116893557  Biso 1.0 Ru
Si9 1.0000000000 0.2500000000 0.2970222898 0.9027073731  Biso 1.0 Si
Si10 1.0000000000 0.7500000000 0.2029777102 0.4027073731  Biso 1.0 Si
Si11 1.0000000000 0.7500000000 0.7029777102 0.0972926269  Biso 1.0 Si
Si12 1.0000000000 0.2500000000 0.7970222898 0.5972926269  Biso 1.0 Si
