# AFLOW.org Repositories
# Ru2Sc1   [HEX,HEX,hP12] (STD_PRIM doi:10
data_Ru2Sc1
_pd_phase_name Ru2Sc1
_cell_length_a  5.1928233796
_cell_length_b  5.1928233796
_cell_length_c  8.6453884327
_cell_angle_alpha  90.0000000000
_cell_angle_beta  90.0000000000
_cell_angle_gamma  120.0000000000
_symmetry_space_group_name_H-M  'P1'
_symmetry_Int_Tables_Number  1
loop_
_symmetry_equiv_pos_site_id
_symmetry_equiv_pos_as_xyz
  1  x,y,z
loop_
 _atom_site_label
 _atom_site_occupancy
 _atom_site_fract_x
 _atom_site_fract_y
 _atom_site_fract_z
 _atom_site_thermal_displace_type
 _atom_site_B_iso_or_equiv
 _atom_site_type_symbol
Ru1 1.0000000000 0.0000000000 0.0000000000 0.0000000000  Biso 1.0 Ru
Ru2 1.0000000000 0.0000000000 0.0000000000 0.5000000000  Biso 1.0 Ru
Ru3 1.0000000000 0.8287014787 0.6574075669 0.2500000000  Biso 1.0 Ru
Ru4 1.0000000000 0.3425924331 0.1712985213 0.2500000000  Biso 1.0 Ru
Ru5 1.0000000000 0.8287042099 0.1712957901 0.2500000000  Biso 1.0 Ru
Ru6 1.0000000000 0.1712985213 0.3425924331 0.7500000000  Biso 1.0 Ru
Ru7 1.0000000000 0.6574075669 0.8287014787 0.7500000000  Biso 1.0 Ru
Ru8 1.0000000000 0.1712957901 0.8287042099 0.7500000000  Biso 1.0 Ru
Sc9 1.0000000000 0.3333529327 0.6666470673 0.0656954054  Biso 1.0 Sc
Sc10 1.0000000000 0.6666470673 0.3333529327 0.5656954054  Biso 1.0 Sc
Sc11 1.0000000000 0.6666470673 0.3333529327 0.9343045946  Biso 1.0 Sc
Sc12 1.0000000000 0.3333529327 0.6666470673 0.4343045946  Biso 1.0 Sc
