# AFLOW.org Repositories
# Ru2Si3   [TET,TET,tP20] (STD_PRIM doi:10
data_Ru2Si3
_pd_phase_name Ru2Si3
_cell_length_a  5.5765762383
_cell_length_b  5.5765762383
_cell_length_c  8.9135278693
_cell_angle_alpha  90.0000000000
_cell_angle_beta  90.0000000000
_cell_angle_gamma  90.0000000000
_symmetry_space_group_name_H-M  'P1'
_symmetry_Int_Tables_Number  1
loop_
_symmetry_equiv_pos_site_id
_symmetry_equiv_pos_as_xyz
  1  x,y,z
loop_
 _atom_site_label
 _atom_site_occupancy
 _atom_site_fract_x
 _atom_site_fract_y
 _atom_site_fract_z
 _atom_site_thermal_displace_type
 _atom_site_B_iso_or_equiv
 _atom_site_type_symbol
Ru1 1.0000000000 0.0000000000 0.5000000000 0.3731649389  Biso 1.0 Ru
Ru2 1.0000000000 0.5000000000 0.0000000000 0.6268350611  Biso 1.0 Ru
Ru3 1.0000000000 0.0000000000 0.5000000000 0.8731649389  Biso 1.0 Ru
Ru4 1.0000000000 0.5000000000 0.0000000000 0.1268350611  Biso 1.0 Ru
Ru5 1.0000000000 0.5000000000 0.5000000000 0.2500000000  Biso 1.0 Ru
Ru6 1.0000000000 0.5000000000 0.5000000000 0.7500000000  Biso 1.0 Ru
Ru7 1.0000000000 0.0000000000 0.0000000000 0.0000000000  Biso 1.0 Ru
Ru8 1.0000000000 0.0000000000 0.0000000000 0.5000000000  Biso 1.0 Ru
Si9 1.0000000000 0.2075405818 0.3557308889 0.0904941624  Biso 1.0 Si
Si10 1.0000000000 0.7924594182 0.6442691111 0.0904941624  Biso 1.0 Si
Si11 1.0000000000 0.3557308889 0.7924594182 0.9095058376  Biso 1.0 Si
Si12 1.0000000000 0.6442691111 0.2075405818 0.9095058376  Biso 1.0 Si
Si13 1.0000000000 0.2075405818 0.6442691111 0.5904941624  Biso 1.0 Si
Si14 1.0000000000 0.7924594182 0.3557308889 0.5904941624  Biso 1.0 Si
Si15 1.0000000000 0.3557308889 0.2075405818 0.4095058376  Biso 1.0 Si
Si16 1.0000000000 0.6442691111 0.7924594182 0.4095058376  Biso 1.0 Si
Si17 1.0000000000 0.1708218117 0.1708218117 0.7500000000  Biso 1.0 Si
Si18 1.0000000000 0.8291781883 0.8291781883 0.7500000000  Biso 1.0 Si
Si19 1.0000000000 0.1708218117 0.8291781883 0.2500000000  Biso 1.0 Si
Si20 1.0000000000 0.8291781883 0.1708218117 0.2500000000  Biso 1.0 Si
