# AFLOW.org Repositories
# S1Ti1   [HEX,HEX,hP2] (STD_PRIM doi:10.1
data_S1Ti1
_pd_phase_name S1Ti1
_cell_length_a  3.3156707801
_cell_length_b  3.3156707801
_cell_length_c  3.2649658306
_cell_angle_alpha  90.0000000000
_cell_angle_beta  90.0000000000
_cell_angle_gamma  120.0000000000
_symmetry_space_group_name_H-M  'P1'
_symmetry_Int_Tables_Number  1
loop_
_symmetry_equiv_pos_site_id
_symmetry_equiv_pos_as_xyz
  1  x,y,z
loop_
 _atom_site_label
 _atom_site_occupancy
 _atom_site_fract_x
 _atom_site_fract_y
 _atom_site_fract_z
 _atom_site_thermal_displace_type
 _atom_site_B_iso_or_equiv
 _atom_site_type_symbol
S1 1.0000000000 0.6666880263 0.3333760525 0.5000000000  Biso 1.0 S
Ti2 1.0000000000 0.0000000000 0.0000000000 0.0000000000  Biso 1.0 Ti
