# AFLOW.org Repositories
# S1Zn1   [HEX,HEX,hP20] (STD_PRIM doi:10.
data_S1Zn1
_pd_phase_name S1Zn1
_cell_length_a  3.7986745065
_cell_length_b  3.7986745065
_cell_length_c  31.0219603954
_cell_angle_alpha  90.0000000000
_cell_angle_beta  90.0000000000
_cell_angle_gamma  120.0000000000
_symmetry_space_group_name_H-M  'P1'
_symmetry_Int_Tables_Number  1
loop_
_symmetry_equiv_pos_site_id
_symmetry_equiv_pos_as_xyz
  1  x,y,z
loop_
 _atom_site_label
 _atom_site_occupancy
 _atom_site_fract_x
 _atom_site_fract_y
 _atom_site_fract_z
 _atom_site_thermal_displace_type
 _atom_site_B_iso_or_equiv
 _atom_site_type_symbol
S1 1.0000000000 0.0000000000 0.0000000000 0.0750047966  Biso 1.0 S
S2 1.0000000000 0.0000000000 0.0000000000 0.5750047987  Biso 1.0 S
S3 1.0000000000 0.0000000000 0.0000000000 0.3749715148  Biso 1.0 S
S4 1.0000000000 0.0000000000 0.0000000000 0.8749715118  Biso 1.0 S
S5 1.0000000000 0.6666827743 0.3333655485 0.1750069379  Biso 1.0 S
S6 1.0000000000 0.3333172134 0.6666344269 0.6750069364  Biso 1.0 S
S7 1.0000000000 0.6666902254 0.3333804508 0.4750464759  Biso 1.0 S
S8 1.0000000000 0.3333097708 0.6666195415 0.9750464737  Biso 1.0 S
S9 1.0000000000 0.6666893550 0.3333787100 0.7750077470  Biso 1.0 S
S10 1.0000000000 0.3333106449 0.6666212898 0.2750077472  Biso 1.0 S
Zn11 1.0000000000 0.0000000000 0.0000000000 0.0000000000  Biso 1.0 Zn
Zn12 1.0000000000 0.0000000000 0.0000000000 0.4999934631  Biso 1.0 Zn
Zn13 1.0000000000 0.0000000000 0.0000000000 0.2999992184  Biso 1.0 Zn
Zn14 1.0000000000 0.0000000000 0.0000000000 0.7999992188  Biso 1.0 Zn
Zn15 1.0000000000 0.6666919677 0.3333839355 0.0999974567  Biso 1.0 Zn
Zn16 1.0000000000 0.3333080385 0.6666160771 0.5999974583  Biso 1.0 Zn
Zn17 1.0000000000 0.6666920633 0.3333841266 0.3999892957  Biso 1.0 Zn
Zn18 1.0000000000 0.3333079440 0.6666158881 0.8999892965  Biso 1.0 Zn
Zn19 1.0000000000 0.6666859511 0.3333719023 0.6999830947  Biso 1.0 Zn
Zn20 1.0000000000 0.3333140509 0.6666281017 0.1999830948  Biso 1.0 Zn
