# AFLOW.org Repositories
# S2Ta1   [HEX,HEX,hP6] (STD_PRIM doi:10.1
data_S2Ta1
_pd_phase_name S2Ta1
_cell_length_a  3.3609939591
_cell_length_b  3.3609939591
_cell_length_c  13.5525323111
_cell_angle_alpha  90.0000000000
_cell_angle_beta  90.0000000000
_cell_angle_gamma  120.0000000000
_symmetry_space_group_name_H-M  'P1'
_symmetry_Int_Tables_Number  1
loop_
_symmetry_equiv_pos_site_id
_symmetry_equiv_pos_as_xyz
  1  x,y,z
loop_
 _atom_site_label
 _atom_site_occupancy
 _atom_site_fract_x
 _atom_site_fract_y
 _atom_site_fract_z
 _atom_site_thermal_displace_type
 _atom_site_B_iso_or_equiv
 _atom_site_type_symbol
S1 1.0000000000 0.3333505555 0.6666752778 0.1339132511  Biso 1.0 S
S2 1.0000000000 0.6666494445 0.3333247222 0.6339132511  Biso 1.0 S
S3 1.0000000000 0.6666494445 0.3333247222 0.8660867489  Biso 1.0 S
S4 1.0000000000 0.3333505555 0.6666752778 0.3660867489  Biso 1.0 S
Ta5 1.0000000000 0.0000000000 0.0000000000 0.2500000000  Biso 1.0 Ta
Ta6 1.0000000000 0.0000000000 0.0000000000 0.7500000000  Biso 1.0 Ta
