# AFLOW.org Repositories
# S2W1   [HEX,HEX,hP6] (STD_PRIM doi:10.10
data_S2W1
_pd_phase_name S2W1
_cell_length_a  3.2022695329
_cell_length_b  3.2022695329
_cell_length_c  13.4653875038
_cell_angle_alpha  90.0000000000
_cell_angle_beta  90.0000000000
_cell_angle_gamma  120.0000000000
_symmetry_space_group_name_H-M  'P1'
_symmetry_Int_Tables_Number  1
loop_
_symmetry_equiv_pos_site_id
_symmetry_equiv_pos_as_xyz
  1  x,y,z
loop_
 _atom_site_label
 _atom_site_occupancy
 _atom_site_fract_x
 _atom_site_fract_y
 _atom_site_fract_z
 _atom_site_thermal_displace_type
 _atom_site_B_iso_or_equiv
 _atom_site_type_symbol
S1 1.0000000000 0.3333297317 0.6666702683 0.6326451946  Biso 1.0 S
S2 1.0000000000 0.6666702683 0.3333297317 0.1326451946  Biso 1.0 S
S3 1.0000000000 0.6666702683 0.3333297317 0.3673548054  Biso 1.0 S
S4 1.0000000000 0.3333297317 0.6666702683 0.8673548054  Biso 1.0 S
W5 1.0000000000 0.3333480793 0.6666519207 0.2500000000  Biso 1.0 W
W6 1.0000000000 0.6666519207 0.3333480793 0.7500000000  Biso 1.0 W
