# AFLOW.org Repositories
# S3Th2   [ORC,ORC,oP20] (STD_PRIM doi:10.
data_S3Th2
_pd_phase_name S3Th2
_cell_length_a  3.9948040637
_cell_length_b  11.1284960214
_cell_length_c  11.3514736387
_cell_angle_alpha  90.0000000000
_cell_angle_beta  90.0000000000
_cell_angle_gamma  90.0000000000
_symmetry_space_group_name_H-M  'P1'
_symmetry_Int_Tables_Number  1
loop_
_symmetry_equiv_pos_site_id
_symmetry_equiv_pos_as_xyz
  1  x,y,z
loop_
 _atom_site_label
 _atom_site_occupancy
 _atom_site_fract_x
 _atom_site_fract_y
 _atom_site_fract_z
 _atom_site_thermal_displace_type
 _atom_site_B_iso_or_equiv
 _atom_site_type_symbol
S1 1.0000000000 0.2500000000 0.4460522477 0.6204798279  Biso 1.0 S
S2 1.0000000000 0.7500000000 0.0539477523 0.1204798279  Biso 1.0 S
S3 1.0000000000 0.7500000000 0.5539477523 0.3795201721  Biso 1.0 S
S4 1.0000000000 0.2500000000 0.9460522477 0.8795201721  Biso 1.0 S
S5 1.0000000000 0.2500000000 0.1225270338 0.5537274729  Biso 1.0 S
S6 1.0000000000 0.7500000000 0.3774729662 0.0537274729  Biso 1.0 S
S7 1.0000000000 0.7500000000 0.8774729662 0.4462725271  Biso 1.0 S
S8 1.0000000000 0.2500000000 0.6225270338 0.9462725271  Biso 1.0 S
S9 1.0000000000 0.2500000000 0.2852259012 0.2961971321  Biso 1.0 S
S10 1.0000000000 0.7500000000 0.2147740988 0.7961971321  Biso 1.0 S
S11 1.0000000000 0.7500000000 0.7147740988 0.7038028679  Biso 1.0 S
S12 1.0000000000 0.2500000000 0.7852259012 0.2038028679  Biso 1.0 S
Th13 1.0000000000 0.2500000000 0.0240965713 0.3146555298  Biso 1.0 Th
Th14 1.0000000000 0.7500000000 0.4759034287 0.8146555298  Biso 1.0 Th
Th15 1.0000000000 0.7500000000 0.9759034287 0.6853444702  Biso 1.0 Th
Th16 1.0000000000 0.2500000000 0.5240965713 0.1853444702  Biso 1.0 Th
Th17 1.0000000000 0.2500000000 0.1988451861 0.9803647811  Biso 1.0 Th
Th18 1.0000000000 0.7500000000 0.3011548139 0.4803647811  Biso 1.0 Th
Th19 1.0000000000 0.7500000000 0.8011548139 0.0196352189  Biso 1.0 Th
Th20 1.0000000000 0.2500000000 0.6988451861 0.5196352189  Biso 1.0 Th
