# AFLOW.org Repositories
# S4Zr3   [FCC,FCC,cF56] (STD_PRIM doi:10.
data_S4Zr3
_pd_phase_name S4Zr3
_cell_length_a  7.6244428936
_cell_length_b  7.6244428936
_cell_length_c  7.6244428936
_cell_angle_alpha  60.0000000000
_cell_angle_beta  60.0000000000
_cell_angle_gamma  60.0000000000
_symmetry_space_group_name_H-M  'P1'
_symmetry_Int_Tables_Number  1
loop_
_symmetry_equiv_pos_site_id
_symmetry_equiv_pos_as_xyz
  1  x,y,z
loop_
 _atom_site_label
 _atom_site_occupancy
 _atom_site_fract_x
 _atom_site_fract_y
 _atom_site_fract_z
 _atom_site_thermal_displace_type
 _atom_site_B_iso_or_equiv
 _atom_site_type_symbol
S1 1.0000000000 0.7560044942 0.7560044942 0.7560044942  Biso 1.0 S
S2 1.0000000000 0.7560044942 0.7560044942 0.2319865175  Biso 1.0 S
S3 1.0000000000 0.2319865175 0.7560044942 0.7560044942  Biso 1.0 S
S4 1.0000000000 0.7560044942 0.2319865175 0.7560044942  Biso 1.0 S
S5 1.0000000000 0.2439955058 0.2439955058 0.7680134825  Biso 1.0 S
S6 1.0000000000 0.2439955058 0.2439955058 0.2439955058  Biso 1.0 S
S7 1.0000000000 0.7680134825 0.2439955058 0.2439955058  Biso 1.0 S
S8 1.0000000000 0.2439955058 0.7680134825 0.2439955058  Biso 1.0 S
Zr9 1.0000000000 0.6250000000 0.6250000000 0.6250000000  Biso 1.0 Zr
Zr10 1.0000000000 0.3750000000 0.3750000000 0.3750000000  Biso 1.0 Zr
Zr11 1.0000000000 0.0000000000 0.0000000000 0.0000000000  Biso 1.0 Zr
Zr12 1.0000000000 0.0000000000 0.0000000000 0.5000000000  Biso 1.0 Zr
Zr13 1.0000000000 0.5000000000 0.0000000000 0.0000000000  Biso 1.0 Zr
Zr14 1.0000000000 0.0000000000 0.5000000000 0.0000000000  Biso 1.0 Zr
