# AFLOW.org Repositories
# Si1   [BCC,BCC,cI82] (STD_PRIM doi:10.10
data_Si1
_pd_phase_name Si1
_cell_length_a  10.8114971046
_cell_length_b  10.8114971046
_cell_length_c  10.8114971046
_cell_angle_alpha  109.4712206345
_cell_angle_beta  109.4712206345
_cell_angle_gamma  109.4712206345
_symmetry_space_group_name_H-M  'P1'
_symmetry_Int_Tables_Number  1
loop_
_symmetry_equiv_pos_site_id
_symmetry_equiv_pos_as_xyz
  1  x,y,z
loop_
 _atom_site_label
 _atom_site_occupancy
 _atom_site_fract_x
 _atom_site_fract_y
 _atom_site_fract_z
 _atom_site_thermal_displace_type
 _atom_site_B_iso_or_equiv
 _atom_site_type_symbol
Si1 1.0000000000 0.6080777150 0.7407385575 0.3948086887  Biso 1.0 Si
Si2 1.0000000000 0.3459298688 0.2132690262 0.6051913113  Biso 1.0 Si
Si3 1.0000000000 0.3919222850 0.7867309738 0.1326608425  Biso 1.0 Si
Si4 1.0000000000 0.6540701312 0.2592614425 0.8673391575  Biso 1.0 Si
Si5 1.0000000000 0.2592614425 0.8673391575 0.6540701312  Biso 1.0 Si
Si6 1.0000000000 0.7867309738 0.1326608425 0.3919222850  Biso 1.0 Si
Si7 1.0000000000 0.2132690262 0.6051913113 0.3459298688  Biso 1.0 Si
Si8 1.0000000000 0.7407385575 0.3948086887 0.6080777150  Biso 1.0 Si
Si9 1.0000000000 0.1326608425 0.3919222850 0.7867309738  Biso 1.0 Si
Si10 1.0000000000 0.8673391575 0.6540701312 0.2592614425  Biso 1.0 Si
Si11 1.0000000000 0.3948086887 0.6080777150 0.7407385575  Biso 1.0 Si
Si12 1.0000000000 0.6051913113 0.3459298688 0.2132690262  Biso 1.0 Si
Si13 1.0000000000 0.7407385575 0.6080777150 0.3948086887  Biso 1.0 Si
Si14 1.0000000000 0.2132690262 0.3459298688 0.6051913113  Biso 1.0 Si
Si15 1.0000000000 0.7867309738 0.3919222850 0.1326608425  Biso 1.0 Si
Si16 1.0000000000 0.2592614425 0.6540701312 0.8673391575  Biso 1.0 Si
Si17 1.0000000000 0.8673391575 0.2592614425 0.6540701312  Biso 1.0 Si
Si18 1.0000000000 0.1326608425 0.7867309738 0.3919222850  Biso 1.0 Si
Si19 1.0000000000 0.6051913113 0.2132690262 0.3459298688  Biso 1.0 Si
Si20 1.0000000000 0.3948086887 0.7407385575 0.6080777150  Biso 1.0 Si
Si21 1.0000000000 0.3919222850 0.1326608425 0.7867309738  Biso 1.0 Si
Si22 1.0000000000 0.6540701312 0.8673391575 0.2592614425  Biso 1.0 Si
Si23 1.0000000000 0.6080777150 0.3948086887 0.7407385575  Biso 1.0 Si
Si24 1.0000000000 0.3459298688 0.6051913113 0.2132690262  Biso 1.0 Si
Si25 1.0000000000 0.0000000000 0.2174527576 0.0000000000  Biso 1.0 Si
Si26 1.0000000000 0.2174527576 0.0000000000 0.0000000000  Biso 1.0 Si
Si27 1.0000000000 0.0000000000 0.0000000000 0.2174527576  Biso 1.0 Si
Si28 1.0000000000 0.7825472424 0.7825472424 0.7825472424  Biso 1.0 Si
Si29 1.0000000000 0.0000000000 0.0000000000 0.0000000000  Biso 1.0 Si
Si30 1.0000000000 0.6407860487 0.8641243620 0.6407860487  Biso 1.0 Si
Si31 1.0000000000 0.2233383133 0.0000000000 0.3592139513  Biso 1.0 Si
Si32 1.0000000000 0.3592139513 0.0000000000 0.2233383133  Biso 1.0 Si
Si33 1.0000000000 0.7766616867 0.1358756380 0.7766616867  Biso 1.0 Si
Si34 1.0000000000 0.1358756380 0.7766616867 0.7766616867  Biso 1.0 Si
Si35 1.0000000000 0.0000000000 0.2233383133 0.3592139513  Biso 1.0 Si
Si36 1.0000000000 0.0000000000 0.3592139513 0.2233383133  Biso 1.0 Si
Si37 1.0000000000 0.8641243620 0.6407860487 0.6407860487  Biso 1.0 Si
Si38 1.0000000000 0.2233383133 0.3592139513 0.0000000000  Biso 1.0 Si
Si39 1.0000000000 0.7766616867 0.7766616867 0.1358756380  Biso 1.0 Si
Si40 1.0000000000 0.6407860487 0.6407860487 0.8641243620  Biso 1.0 Si
Si41 1.0000000000 0.3592139513 0.2233383133 0.0000000000  Biso 1.0 Si
