# AFLOW.org Repositories
# Si1   [ORCI,ORCI,oI4] (STD_PRIM doi:10.1
data_Si1
_pd_phase_name Si1
_cell_length_a  3.6494818407
_cell_length_b  3.6494818407
_cell_length_c  3.6494818407
_cell_angle_alpha  137.4084182223
_cell_angle_beta  97.6492592198
_cell_angle_gamma  97.5097524106
_symmetry_space_group_name_H-M  'P1'
_symmetry_Int_Tables_Number  1
loop_
_symmetry_equiv_pos_site_id
_symmetry_equiv_pos_as_xyz
  1  x,y,z
loop_
 _atom_site_label
 _atom_site_occupancy
 _atom_site_fract_x
 _atom_site_fract_y
 _atom_site_fract_z
 _atom_site_thermal_displace_type
 _atom_site_B_iso_or_equiv
 _atom_site_type_symbol
Si1 1.0000000000 0.2500000000 0.1263737077 0.3763737077  Biso 1.0 Si
Si2 1.0000000000 0.7500000000 0.8736262923 0.6236262923  Biso 1.0 Si
