# AFLOW.org Repositories
# Si1Ta2V3   [HEX,HEX,hP12] (STD_PRIM doi:
data_Si1Ta2V3
_pd_phase_name Si1Ta2V3
_cell_length_a  5.0564471015
_cell_length_b  5.0564471015
_cell_length_c  8.3146520322
_cell_angle_alpha  90.0000000000
_cell_angle_beta  90.0000000000
_cell_angle_gamma  120.0000000000
_symmetry_space_group_name_H-M  'P1'
_symmetry_Int_Tables_Number  1
loop_
_symmetry_equiv_pos_site_id
_symmetry_equiv_pos_as_xyz
  1  x,y,z
loop_
 _atom_site_label
 _atom_site_occupancy
 _atom_site_fract_x
 _atom_site_fract_y
 _atom_site_fract_z
 _atom_site_thermal_displace_type
 _atom_site_B_iso_or_equiv
 _atom_site_type_symbol
Si1 1.0000000000 0.0000000000 0.0000000000 0.0000000000  Biso 1.0 Si
Si2 1.0000000000 0.0000000000 0.0000000000 0.5000000000  Biso 1.0 Si
Ta3 1.0000000000 0.6666525195 0.3333050390 0.5605827970  Biso 1.0 Ta
Ta4 1.0000000000 0.3333474805 0.6666949610 0.0605827970  Biso 1.0 Ta
Ta5 1.0000000000 0.3333474805 0.6666949610 0.4394172030  Biso 1.0 Ta
Ta6 1.0000000000 0.6666525195 0.3333050390 0.9394172030  Biso 1.0 Ta
V7 1.0000000000 0.3426253920 0.1713035700 0.2500000000  Biso 1.0 V
V8 1.0000000000 0.8286781780 0.1713035700 0.2500000000  Biso 1.0 V
V9 1.0000000000 0.8286676759 0.6573353518 0.2500000000  Biso 1.0 V
V10 1.0000000000 0.6573746080 0.8286964300 0.7500000000  Biso 1.0 V
V11 1.0000000000 0.1713218220 0.8286964300 0.7500000000  Biso 1.0 V
V12 1.0000000000 0.1713323241 0.3426646482 0.7500000000  Biso 1.0 V
