# AFLOW.org Repositories
# Si2Th3   [TET,TET,tP10] (STD_PRIM doi:10
data_Si2Th3
_pd_phase_name Si2Th3
_cell_length_a  8.0000855033
_cell_length_b  8.0000855033
_cell_length_c  4.2635876088
_cell_angle_alpha  90.0000000000
_cell_angle_beta  90.0000000000
_cell_angle_gamma  90.0000000000
_symmetry_space_group_name_H-M  'P1'
_symmetry_Int_Tables_Number  1
loop_
_symmetry_equiv_pos_site_id
_symmetry_equiv_pos_as_xyz
  1  x,y,z
loop_
 _atom_site_label
 _atom_site_occupancy
 _atom_site_fract_x
 _atom_site_fract_y
 _atom_site_fract_z
 _atom_site_thermal_displace_type
 _atom_site_B_iso_or_equiv
 _atom_site_type_symbol
Si1 1.0000000000 0.6116091250 0.1116091250 0.0000000000  Biso 1.0 Si
Si2 1.0000000000 0.3883908750 0.8883908750 0.0000000000  Biso 1.0 Si
Si3 1.0000000000 0.8883908750 0.6116091250 0.0000000000  Biso 1.0 Si
Si4 1.0000000000 0.1116091250 0.3883908750 0.0000000000  Biso 1.0 Si
Th5 1.0000000000 0.0000000000 0.0000000000 0.0000000000  Biso 1.0 Th
Th6 1.0000000000 0.5000000000 0.5000000000 0.0000000000  Biso 1.0 Th
Th7 1.0000000000 0.1796536676 0.6796536676 0.5000000000  Biso 1.0 Th
Th8 1.0000000000 0.8203463324 0.3203463324 0.5000000000  Biso 1.0 Th
Th9 1.0000000000 0.3203463324 0.1796536676 0.5000000000  Biso 1.0 Th
Th10 1.0000000000 0.6796536676 0.8203463324 0.5000000000  Biso 1.0 Th
