# AFLOW.org Repositories
# Si4Ti5   [TET,TET,tP36] (STD_PRIM doi:10
data_Si4Ti5
_pd_phase_name Si4Ti5
_cell_length_a  6.7997358215
_cell_length_b  6.7997358215
_cell_length_c  12.3404056872
_cell_angle_alpha  90.0000000000
_cell_angle_beta  90.0000000000
_cell_angle_gamma  90.0000000000
_symmetry_space_group_name_H-M  'P1'
_symmetry_Int_Tables_Number  1
loop_
_symmetry_equiv_pos_site_id
_symmetry_equiv_pos_as_xyz
  1  x,y,z
loop_
 _atom_site_label
 _atom_site_occupancy
 _atom_site_fract_x
 _atom_site_fract_y
 _atom_site_fract_z
 _atom_site_thermal_displace_type
 _atom_site_B_iso_or_equiv
 _atom_site_type_symbol
Si1 1.0000000000 0.0459821314 0.3008556635 0.8134753695  Biso 1.0 Si
Si2 1.0000000000 0.9540178686 0.6991443365 0.3134753695  Biso 1.0 Si
Si3 1.0000000000 0.1991443365 0.5459821314 0.0634753695  Biso 1.0 Si
Si4 1.0000000000 0.8008556635 0.4540178686 0.5634753695  Biso 1.0 Si
Si5 1.0000000000 0.4540178686 0.8008556635 0.4365246305  Biso 1.0 Si
Si6 1.0000000000 0.5459821314 0.1991443365 0.9365246305  Biso 1.0 Si
Si7 1.0000000000 0.3008556635 0.0459821314 0.1865246305  Biso 1.0 Si
Si8 1.0000000000 0.6991443365 0.9540178686 0.6865246305  Biso 1.0 Si
Si9 1.0000000000 0.2939204830 0.3574578016 0.6730012720  Biso 1.0 Si
Si10 1.0000000000 0.7060795170 0.6425421984 0.1730012720  Biso 1.0 Si
Si11 1.0000000000 0.1425421984 0.7939204830 0.9230012720  Biso 1.0 Si
Si12 1.0000000000 0.8574578016 0.2060795170 0.4230012720  Biso 1.0 Si
Si13 1.0000000000 0.2060795170 0.8574578016 0.5769987280  Biso 1.0 Si
Si14 1.0000000000 0.7939204830 0.1425421984 0.0769987280  Biso 1.0 Si
Si15 1.0000000000 0.3574578016 0.2939204830 0.3269987280  Biso 1.0 Si
Si16 1.0000000000 0.6425421984 0.7060795170 0.8269987280  Biso 1.0 Si
Ti17 1.0000000000 0.1719878824 0.1719878824 0.0000000000  Biso 1.0 Ti
Ti18 1.0000000000 0.8280121176 0.8280121176 0.5000000000  Biso 1.0 Ti
Ti19 1.0000000000 0.3280121176 0.6719878824 0.2500000000  Biso 1.0 Ti
Ti20 1.0000000000 0.6719878824 0.3280121176 0.7500000000  Biso 1.0 Ti
Ti21 1.0000000000 0.9973232480 0.1490781309 0.6220530228  Biso 1.0 Ti
Ti22 1.0000000000 0.0026767520 0.8509218691 0.1220530228  Biso 1.0 Ti
Ti23 1.0000000000 0.3509218691 0.4973232480 0.8720530228  Biso 1.0 Ti
Ti24 1.0000000000 0.6490781309 0.5026767520 0.3720530228  Biso 1.0 Ti
Ti25 1.0000000000 0.5026767520 0.6490781309 0.6279469772  Biso 1.0 Ti
Ti26 1.0000000000 0.4973232480 0.3509218691 0.1279469772  Biso 1.0 Ti
Ti27 1.0000000000 0.1490781309 0.9973232480 0.3779469772  Biso 1.0 Ti
Ti28 1.0000000000 0.8509218691 0.0026767520 0.8779469772  Biso 1.0 Ti
Ti29 1.0000000000 0.0000000000 0.3441238620 0.2188070576  Biso 1.0 Ti
Ti30 1.0000000000 0.0000000000 0.6558761380 0.7188070576  Biso 1.0 Ti
Ti31 1.0000000000 0.1558761380 0.5003139190 0.4688070576  Biso 1.0 Ti
Ti32 1.0000000000 0.8441238620 0.4996860810 0.9688070576  Biso 1.0 Ti
Ti33 1.0000000000 0.4996860810 0.8441238620 0.0311929424  Biso 1.0 Ti
Ti34 1.0000000000 0.5003139190 0.1558761380 0.5311929424  Biso 1.0 Ti
Ti35 1.0000000000 0.3441238620 0.0000000000 0.7811929424  Biso 1.0 Ti
Ti36 1.0000000000 0.6558761380 0.0000000000 0.2811929424  Biso 1.0 Ti
