# AFLOW.org Repositories
# Ta1   [TET,TET,tP30] (STD_PRIM doi:10.10
data_Ta1
_pd_phase_name Ta1
_cell_length_a  10.3544452556
_cell_length_b  10.3544452556
_cell_length_c  5.3793916032
_cell_angle_alpha  90.0000000000
_cell_angle_beta  90.0000000000
_cell_angle_gamma  90.0000000000
_symmetry_space_group_name_H-M  'P1'
_symmetry_Int_Tables_Number  1
loop_
_symmetry_equiv_pos_site_id
_symmetry_equiv_pos_as_xyz
  1  x,y,z
loop_
 _atom_site_label
 _atom_site_occupancy
 _atom_site_fract_x
 _atom_site_fract_y
 _atom_site_fract_z
 _atom_site_thermal_displace_type
 _atom_site_B_iso_or_equiv
 _atom_site_type_symbol
Ta1 1.0000000000 0.0000000000 0.0000000000 0.5000000000  Biso 1.0 Ta
Ta2 1.0000000000 0.5000000000 0.5000000000 0.0000000000  Biso 1.0 Ta
Ta3 1.0000000000 0.1043797911 0.1043797911 0.0000000000  Biso 1.0 Ta
Ta4 1.0000000000 0.8956202089 0.8956202089 0.0000000000  Biso 1.0 Ta
Ta5 1.0000000000 0.3956202089 0.6043797911 0.5000000000  Biso 1.0 Ta
Ta6 1.0000000000 0.6043797911 0.3956202089 0.5000000000  Biso 1.0 Ta
Ta7 1.0000000000 0.3189231137 0.3189231137 0.2505738534  Biso 1.0 Ta
Ta8 1.0000000000 0.6810768863 0.6810768863 0.2505738534  Biso 1.0 Ta
Ta9 1.0000000000 0.1810768863 0.8189231137 0.7505738534  Biso 1.0 Ta
Ta10 1.0000000000 0.8189231137 0.1810768863 0.7505738534  Biso 1.0 Ta
Ta11 1.0000000000 0.1810768863 0.8189231137 0.2494261466  Biso 1.0 Ta
Ta12 1.0000000000 0.8189231137 0.1810768863 0.2494261466  Biso 1.0 Ta
Ta13 1.0000000000 0.3189231137 0.3189231137 0.7494261466  Biso 1.0 Ta
Ta14 1.0000000000 0.6810768863 0.6810768863 0.7494261466  Biso 1.0 Ta
Ta15 1.0000000000 0.5674356179 0.2387791103 0.0000000000  Biso 1.0 Ta
Ta16 1.0000000000 0.4325643821 0.7612208897 0.0000000000  Biso 1.0 Ta
Ta17 1.0000000000 0.2612208897 0.0674356179 0.5000000000  Biso 1.0 Ta
Ta18 1.0000000000 0.7387791103 0.9325643821 0.5000000000  Biso 1.0 Ta
Ta19 1.0000000000 0.9325643821 0.7387791103 0.5000000000  Biso 1.0 Ta
Ta20 1.0000000000 0.0674356179 0.2612208897 0.5000000000  Biso 1.0 Ta
Ta21 1.0000000000 0.2387791103 0.5674356179 0.0000000000  Biso 1.0 Ta
Ta22 1.0000000000 0.7612208897 0.4325643821 0.0000000000  Biso 1.0 Ta
Ta23 1.0000000000 0.3712479246 0.0347055996 0.0000000000  Biso 1.0 Ta
Ta24 1.0000000000 0.6287520754 0.9652944004 0.0000000000  Biso 1.0 Ta
Ta25 1.0000000000 0.4652944004 0.8712479246 0.5000000000  Biso 1.0 Ta
Ta26 1.0000000000 0.5347055996 0.1287520754 0.5000000000  Biso 1.0 Ta
Ta27 1.0000000000 0.1287520754 0.5347055996 0.5000000000  Biso 1.0 Ta
Ta28 1.0000000000 0.8712479246 0.4652944004 0.5000000000  Biso 1.0 Ta
Ta29 1.0000000000 0.0347055996 0.3712479246 0.0000000000  Biso 1.0 Ta
Ta30 1.0000000000 0.9652944004 0.6287520754 0.0000000000  Biso 1.0 Ta
