# AFLOW.org Repositories
# Tl1   [BCT,BCT2,tI2] (STD_PRIM doi:10.10
data_Tl1
_pd_phase_name Tl1
_cell_length_a  3.5388786970
_cell_length_b  3.5388786970
_cell_length_c  3.5388786970
_cell_angle_alpha  121.7852815132
_cell_angle_beta  121.7852815132
_cell_angle_gamma  86.9346515173
_symmetry_space_group_name_H-M  'P1'
_symmetry_Int_Tables_Number  1
loop_
_symmetry_equiv_pos_site_id
_symmetry_equiv_pos_as_xyz
  1  x,y,z
loop_
 _atom_site_label
 _atom_site_occupancy
 _atom_site_fract_x
 _atom_site_fract_y
 _atom_site_fract_z
 _atom_site_thermal_displace_type
 _atom_site_B_iso_or_equiv
 _atom_site_type_symbol
Tl1 1.0000000000 0.0000000000 0.0000000000 0.0000000000  Biso 1.0 Tl
