# AFLOW.org Repositories
# Ag1Al1Se2   [BCT,BCT2,tI16] (STD_PRIM do
data_Ag1Al1Se2
_pd_phase_name Ag1Al1Se2
_cell_length_a  6.9904154907
_cell_length_b  6.9904154907
_cell_length_c  6.9904154907
_cell_angle_alpha  128.3516297283
_cell_angle_beta  128.3516297283
_cell_angle_gamma  76.0560903515
_symmetry_space_group_name_H-M  'P1'
_symmetry_Int_Tables_Number  1
loop_
_symmetry_equiv_pos_site_id
_symmetry_equiv_pos_as_xyz
  1  x,y,z
loop_
 _atom_site_label
 _atom_site_occupancy
 _atom_site_fract_x
 _atom_site_fract_y
 _atom_site_fract_z
 _atom_site_thermal_displace_type
 _atom_site_B_iso_or_equiv
 _atom_site_type_symbol
Ag1 1.0000000000 0.0000000000 0.0000000000 0.0000000000  Biso 1.0 Ag
Ag2 1.0000000000 0.2500000000 0.7500000000 0.5000000000  Biso 1.0 Ag
Al3 1.0000000000 0.5000000000 0.5000000000 0.0000000000  Biso 1.0 Al
Al4 1.0000000000 0.7500000000 0.2500000000 0.5000000000  Biso 1.0 Al
Se5 1.0000000000 0.8352095178 0.3750000000 0.9602095178  Biso 1.0 Se
Se6 1.0000000000 0.4147904822 0.8750000000 0.0397904822  Biso 1.0 Se
Se7 1.0000000000 0.6250000000 0.5852095178 0.4602095178  Biso 1.0 Se
Se8 1.0000000000 0.1250000000 0.1647904822 0.5397904822  Biso 1.0 Se
