# AFLOW.org Repositories
# Ag1Bi1K2   [ORCC,ORCC,oS16] (STD_PRIM do
data_Ag1Bi1K2
_pd_phase_name Ag1Bi1K2
_cell_length_a  6.8547927425
_cell_length_b  6.8547927425
_cell_length_c  6.4393519885
_cell_angle_alpha  90.0000000000
_cell_angle_beta  90.0000000000
_cell_angle_gamma  102.6711474780
_symmetry_space_group_name_H-M  'P1'
_symmetry_Int_Tables_Number  1
loop_
_symmetry_equiv_pos_site_id
_symmetry_equiv_pos_as_xyz
  1  x,y,z
loop_
 _atom_site_label
 _atom_site_occupancy
 _atom_site_fract_x
 _atom_site_fract_y
 _atom_site_fract_z
 _atom_site_thermal_displace_type
 _atom_site_B_iso_or_equiv
 _atom_site_type_symbol
Ag1 1.0000000000 0.4983543774 0.5016456226 0.0000000000  Biso 1.0 Ag
Ag2 1.0000000000 0.5016456226 0.4983543774 0.5000000000  Biso 1.0 Ag
Bi3 1.0000000000 0.2262931299 0.2262931299 0.2500000000  Biso 1.0 Bi
Bi4 1.0000000000 0.7737068701 0.7737068701 0.7500000000  Biso 1.0 Bi
K5 1.0000000000 0.6759240084 0.0241930336 0.2537794439  Biso 1.0 K
K6 1.0000000000 0.3240759916 0.9758069664 0.7537794439  Biso 1.0 K
K7 1.0000000000 0.0241930336 0.6759240084 0.2462205561  Biso 1.0 K
K8 1.0000000000 0.9758069664 0.3240759916 0.7462205561  Biso 1.0 K
