# AFLOW.org Repositories
# Ag1Er1Se2   [ORC,ORC,oP16] (STD_PRIM doi
data_Ag1Er1Se2
_pd_phase_name Ag1Er1Se2
_cell_length_a  4.1942266970
_cell_length_b  6.9215856199
_cell_length_c  13.7523887391
_cell_angle_alpha  90.0000000000
_cell_angle_beta  90.0000000000
_cell_angle_gamma  90.0000000000
_symmetry_space_group_name_H-M  'P1'
_symmetry_Int_Tables_Number  1
loop_
_symmetry_equiv_pos_site_id
_symmetry_equiv_pos_as_xyz
  1  x,y,z
loop_
 _atom_site_label
 _atom_site_occupancy
 _atom_site_fract_x
 _atom_site_fract_y
 _atom_site_fract_z
 _atom_site_thermal_displace_type
 _atom_site_B_iso_or_equiv
 _atom_site_type_symbol
Ag1 1.0000000000 0.0000000000 0.2942877324 0.6218394422  Biso 1.0 Ag
Ag2 1.0000000000 0.5002916381 0.2057054995 0.3781622345  Biso 1.0 Ag
Ag3 1.0000000000 0.4997083619 0.7057054995 0.1218377655  Biso 1.0 Ag
Ag4 1.0000000000 0.0000000000 0.7942877324 0.8781605578  Biso 1.0 Ag
Er5 1.0000000000 0.7694904601 0.2900438885 0.8711776492  Biso 1.0 Er
Er6 1.0000000000 0.2694931208 0.2099636249 0.1288226974  Biso 1.0 Er
Er7 1.0000000000 0.7305068792 0.7099636249 0.3711773026  Biso 1.0 Er
Er8 1.0000000000 0.2305095399 0.7900438885 0.6288223508  Biso 1.0 Er
Se9 1.0000000000 0.2700715531 0.0877767311 0.7726111515  Biso 1.0 Se
Se10 1.0000000000 0.7700707312 0.4122128794 0.2273962778  Biso 1.0 Se
Se11 1.0000000000 0.2299292688 0.9122128794 0.2726037222  Biso 1.0 Se
Se12 1.0000000000 0.7299284469 0.5877767311 0.7273888485  Biso 1.0 Se
Se13 1.0000000000 0.2650794213 0.4819140564 0.9728026960  Biso 1.0 Se
Se14 1.0000000000 0.7650831995 0.0180955879 0.0271971154  Biso 1.0 Se
Se15 1.0000000000 0.2349168005 0.5180955879 0.4728028846  Biso 1.0 Se
Se16 1.0000000000 0.7349205787 0.9819140564 0.5271973040  Biso 1.0 Se
