# AFLOW.org Repositories
# Ag1Ga1S2   [BCT,BCT2,tI16] (STD_PRIM doi
data_Ag1Ga1S2
_pd_phase_name Ag1Ga1S2
_cell_length_a  6.6791346456
_cell_length_b  6.6791346456
_cell_length_c  6.6791346456
_cell_angle_alpha  128.1024381830
_cell_angle_beta  128.1024381830
_cell_angle_gamma  76.4591410417
_symmetry_space_group_name_H-M  'P1'
_symmetry_Int_Tables_Number  1
loop_
_symmetry_equiv_pos_site_id
_symmetry_equiv_pos_as_xyz
  1  x,y,z
loop_
 _atom_site_label
 _atom_site_occupancy
 _atom_site_fract_x
 _atom_site_fract_y
 _atom_site_fract_z
 _atom_site_thermal_displace_type
 _atom_site_B_iso_or_equiv
 _atom_site_type_symbol
Ag1 1.0000000000 0.0000000000 0.0000000000 0.0000000000  Biso 1.0 Ag
Ag2 1.0000000000 0.2500000000 0.7500000000 0.5000000000  Biso 1.0 Ag
Ga3 1.0000000000 0.5000000000 0.5000000000 0.0000000000  Biso 1.0 Ga
Ga4 1.0000000000 0.7500000000 0.2500000000 0.5000000000  Biso 1.0 Ga
S5 1.0000000000 0.4172937979 0.8750000000 0.0422937979  Biso 1.0 S
S6 1.0000000000 0.8327062021 0.3750000000 0.9577062021  Biso 1.0 S
S7 1.0000000000 0.1250000000 0.1672937979 0.5422937979  Biso 1.0 S
S8 1.0000000000 0.6250000000 0.5827062021 0.4577062021  Biso 1.0 S
