# AFLOW.org Repositories
# Ag1I1   [MCL,MCL,mP4] (STD_PRIM doi:10.1
data_Ag1I1
_pd_phase_name Ag1I1
_cell_length_a  4.3594900179
_cell_length_b  4.3601699558
_cell_length_c  6.1739125210
_cell_angle_alpha  89.8064118939
_cell_angle_beta  90.0000000000
_cell_angle_gamma  90.0000000000
_symmetry_space_group_name_H-M  'P1'
_symmetry_Int_Tables_Number  1
loop_
_symmetry_equiv_pos_site_id
_symmetry_equiv_pos_as_xyz
  1  x,y,z
loop_
 _atom_site_label
 _atom_site_occupancy
 _atom_site_fract_x
 _atom_site_fract_y
 _atom_site_fract_z
 _atom_site_thermal_displace_type
 _atom_site_B_iso_or_equiv
 _atom_site_type_symbol
Ag1 1.0000000000 0.7500000000 0.2470212839 0.2558833622  Biso 1.0 Ag
Ag2 1.0000000000 0.2500000000 0.7529787161 0.7441166378  Biso 1.0 Ag
I3 1.0000000000 0.7500000000 0.2519460731 0.7522043217  Biso 1.0 I
I4 1.0000000000 0.2500000000 0.7480539269 0.2477956783  Biso 1.0 I
