# AFLOW.org Repositories
# Ag1Th2   [BCT,BCT1,tI12] (STD_PRIM doi:1
data_Ag1Th2
_pd_phase_name Ag1Th2
_cell_length_a  6.2927837964
_cell_length_b  6.2927837964
_cell_length_c  6.2927837964
_cell_angle_alpha  102.7995062208
_cell_angle_beta  102.7995062208
_cell_angle_gamma  123.8430487696
_symmetry_space_group_name_H-M  'P1'
_symmetry_Int_Tables_Number  1
loop_
_symmetry_equiv_pos_site_id
_symmetry_equiv_pos_as_xyz
  1  x,y,z
loop_
 _atom_site_label
 _atom_site_occupancy
 _atom_site_fract_x
 _atom_site_fract_y
 _atom_site_fract_z
 _atom_site_thermal_displace_type
 _atom_site_B_iso_or_equiv
 _atom_site_type_symbol
Ag1 1.0000000000 0.2500000000 0.2500000000 0.0000000000  Biso 1.0 Ag
Ag2 1.0000000000 0.7500000000 0.7500000000 0.0000000000  Biso 1.0 Ag
Th3 1.0000000000 0.1567186192 0.3432813808 0.5000000000  Biso 1.0 Th
Th4 1.0000000000 0.8432813808 0.6567186192 0.5000000000  Biso 1.0 Th
Th5 1.0000000000 0.3432813808 0.8432813808 0.1865627616  Biso 1.0 Th
Th6 1.0000000000 0.6567186192 0.1567186192 0.8134372384  Biso 1.0 Th
