# AFLOW.org Repositories
# Ag2Mo1O4   [FCC,FCC,cF56] (STD_PRIM doi:
data_Ag2Mo1O4
_pd_phase_name Ag2Mo1O4
_cell_length_a  6.6917667820
_cell_length_b  6.6917667820
_cell_length_c  6.6917667820
_cell_angle_alpha  60.0000000000
_cell_angle_beta  60.0000000000
_cell_angle_gamma  60.0000000000
_symmetry_space_group_name_H-M  'P1'
_symmetry_Int_Tables_Number  1
loop_
_symmetry_equiv_pos_site_id
_symmetry_equiv_pos_as_xyz
  1  x,y,z
loop_
 _atom_site_label
 _atom_site_occupancy
 _atom_site_fract_x
 _atom_site_fract_y
 _atom_site_fract_z
 _atom_site_thermal_displace_type
 _atom_site_B_iso_or_equiv
 _atom_site_type_symbol
Ag1 1.0000000000 0.1250000000 0.6250000000 0.6250000000  Biso 1.0 Ag
Ag2 1.0000000000 0.6250000000 0.1250000000 0.6250000000  Biso 1.0 Ag
Ag3 1.0000000000 0.6250000000 0.6250000000 0.1250000000  Biso 1.0 Ag
Ag4 1.0000000000 0.6250000000 0.6250000000 0.6250000000  Biso 1.0 Ag
Mo5 1.0000000000 0.0000000000 0.0000000000 0.0000000000  Biso 1.0 Mo
Mo6 1.0000000000 0.2500000000 0.2500000000 0.2500000000  Biso 1.0 Mo
O7 1.0000000000 0.9200891320 0.3599702893 0.3599702893  Biso 1.0 O
O8 1.0000000000 0.3599702893 0.9200891320 0.3599702893  Biso 1.0 O
O9 1.0000000000 0.3599702893 0.3599702893 0.9200891320  Biso 1.0 O
O10 1.0000000000 0.3599702893 0.3599702893 0.3599702893  Biso 1.0 O
O11 1.0000000000 0.8900297107 0.3299108680 0.8900297107  Biso 1.0 O
O12 1.0000000000 0.3299108680 0.8900297107 0.8900297107  Biso 1.0 O
O13 1.0000000000 0.8900297107 0.8900297107 0.3299108680  Biso 1.0 O
O14 1.0000000000 0.8900297107 0.8900297107 0.8900297107  Biso 1.0 O
