# AFLOW.org Repositories
# Ag2Tb1   [BCT,BCT2,tI6] (STD_PRIM doi:10
data_Ag2Tb1
_pd_phase_name Ag2Tb1
_cell_length_a  5.4087108492
_cell_length_b  5.4087108492
_cell_length_c  5.4087108492
_cell_angle_alpha  139.5266299933
_cell_angle_beta  139.5266299933
_cell_angle_gamma  58.5727536481
_symmetry_space_group_name_H-M  'P1'
_symmetry_Int_Tables_Number  1
loop_
_symmetry_equiv_pos_site_id
_symmetry_equiv_pos_as_xyz
  1  x,y,z
loop_
 _atom_site_label
 _atom_site_occupancy
 _atom_site_fract_x
 _atom_site_fract_y
 _atom_site_fract_z
 _atom_site_thermal_displace_type
 _atom_site_B_iso_or_equiv
 _atom_site_type_symbol
Ag1 1.0000000000 0.3274260342 0.3274260342 0.0000000000  Biso 1.0 Ag
Ag2 1.0000000000 0.6725739658 0.6725739658 0.0000000000  Biso 1.0 Ag
Tb3 1.0000000000 0.0000000000 0.0000000000 0.0000000000  Biso 1.0 Tb
