# AFLOW.org Repositories
# Ag9In4   [CUB,CUB,cP52] (STD_PRIM doi:10
data_Ag9In4
_pd_phase_name Ag9In4
_cell_length_a  10.0444514868
_cell_length_b  10.0444514868
_cell_length_c  10.0444514868
_cell_angle_alpha  90.0000000000
_cell_angle_beta  90.0000000000
_cell_angle_gamma  90.0000000000
_symmetry_space_group_name_H-M  'P1'
_symmetry_Int_Tables_Number  1
loop_
_symmetry_equiv_pos_site_id
_symmetry_equiv_pos_as_xyz
  1  x,y,z
loop_
 _atom_site_label
 _atom_site_occupancy
 _atom_site_fract_x
 _atom_site_fract_y
 _atom_site_fract_z
 _atom_site_thermal_displace_type
 _atom_site_B_iso_or_equiv
 _atom_site_type_symbol
Ag1 1.0000000000 0.3953375648 0.3953375648 0.6046624352  Biso 1.0 Ag
Ag2 1.0000000000 0.6046624352 0.6046624352 0.6046624352  Biso 1.0 Ag
Ag3 1.0000000000 0.6046624352 0.3953375648 0.3953375648  Biso 1.0 Ag
Ag4 1.0000000000 0.3953375648 0.6046624352 0.3953375648  Biso 1.0 Ag
Ag5 1.0000000000 0.1695060569 0.1695060569 0.8304939431  Biso 1.0 Ag
Ag6 1.0000000000 0.8304939431 0.8304939431 0.8304939431  Biso 1.0 Ag
Ag7 1.0000000000 0.8304939431 0.1695060569 0.1695060569  Biso 1.0 Ag
Ag8 1.0000000000 0.1695060569 0.8304939431 0.1695060569  Biso 1.0 Ag
Ag9 1.0000000000 0.6755304310 0.6755304310 0.3244695690  Biso 1.0 Ag
Ag10 1.0000000000 0.3244695690 0.3244695690 0.3244695690  Biso 1.0 Ag
Ag11 1.0000000000 0.3244695690 0.6755304310 0.6755304310  Biso 1.0 Ag
Ag12 1.0000000000 0.6755304310 0.3244695690 0.6755304310  Biso 1.0 Ag
Ag13 1.0000000000 0.0000000000 0.0000000000 0.3568226993  Biso 1.0 Ag
Ag14 1.0000000000 0.0000000000 0.0000000000 0.6431773007  Biso 1.0 Ag
Ag15 1.0000000000 0.6431773007 0.0000000000 0.0000000000  Biso 1.0 Ag
Ag16 1.0000000000 0.3568226993 0.0000000000 0.0000000000  Biso 1.0 Ag
Ag17 1.0000000000 0.0000000000 0.6431773007 0.0000000000  Biso 1.0 Ag
Ag18 1.0000000000 0.0000000000 0.3568226993 0.0000000000  Biso 1.0 Ag
Ag19 1.0000000000 0.5000000000 0.5000000000 0.8547077906  Biso 1.0 Ag
Ag20 1.0000000000 0.5000000000 0.5000000000 0.1452922094  Biso 1.0 Ag
Ag21 1.0000000000 0.1452922094 0.5000000000 0.5000000000  Biso 1.0 Ag
Ag22 1.0000000000 0.8547077906 0.5000000000 0.5000000000  Biso 1.0 Ag
Ag23 1.0000000000 0.5000000000 0.1452922094 0.5000000000  Biso 1.0 Ag
Ag24 1.0000000000 0.5000000000 0.8547077906 0.5000000000  Biso 1.0 Ag
Ag25 1.0000000000 0.6816768792 0.6816768792 0.0281900178  Biso 1.0 Ag
Ag26 1.0000000000 0.3183231208 0.3183231208 0.0281900178  Biso 1.0 Ag
Ag27 1.0000000000 0.3183231208 0.6816768792 0.9718099822  Biso 1.0 Ag
Ag28 1.0000000000 0.6816768792 0.3183231208 0.9718099822  Biso 1.0 Ag
Ag29 1.0000000000 0.9718099822 0.6816768792 0.3183231208  Biso 1.0 Ag
Ag30 1.0000000000 0.9718099822 0.3183231208 0.6816768792  Biso 1.0 Ag
Ag31 1.0000000000 0.0281900178 0.3183231208 0.3183231208  Biso 1.0 Ag
Ag32 1.0000000000 0.0281900178 0.6816768792 0.6816768792  Biso 1.0 Ag
Ag33 1.0000000000 0.6816768792 0.9718099822 0.3183231208  Biso 1.0 Ag
Ag34 1.0000000000 0.3183231208 0.9718099822 0.6816768792  Biso 1.0 Ag
Ag35 1.0000000000 0.6816768792 0.0281900178 0.6816768792  Biso 1.0 Ag
Ag36 1.0000000000 0.3183231208 0.0281900178 0.3183231208  Biso 1.0 Ag
In37 1.0000000000 0.8773415621 0.8773415621 0.1226584379  Biso 1.0 In
In38 1.0000000000 0.1226584379 0.1226584379 0.1226584379  Biso 1.0 In
In39 1.0000000000 0.1226584379 0.8773415621 0.8773415621  Biso 1.0 In
In40 1.0000000000 0.8773415621 0.1226584379 0.8773415621  Biso 1.0 In
In41 1.0000000000 0.1895519780 0.1895519780 0.5337368323  Biso 1.0 In
In42 1.0000000000 0.8104480220 0.8104480220 0.5337368323  Biso 1.0 In
In43 1.0000000000 0.8104480220 0.1895519780 0.4662631677  Biso 1.0 In
In44 1.0000000000 0.1895519780 0.8104480220 0.4662631677  Biso 1.0 In
In45 1.0000000000 0.4662631677 0.1895519780 0.8104480220  Biso 1.0 In
In46 1.0000000000 0.4662631677 0.8104480220 0.1895519780  Biso 1.0 In
In47 1.0000000000 0.5337368323 0.8104480220 0.8104480220  Biso 1.0 In
In48 1.0000000000 0.5337368323 0.1895519780 0.1895519780  Biso 1.0 In
In49 1.0000000000 0.1895519780 0.4662631677 0.8104480220  Biso 1.0 In
In50 1.0000000000 0.8104480220 0.4662631677 0.1895519780  Biso 1.0 In
In51 1.0000000000 0.1895519780 0.5337368323 0.1895519780  Biso 1.0 In
In52 1.0000000000 0.8104480220 0.5337368323 0.8104480220  Biso 1.0 In
