# AFLOW.org Repositories
# Al16Ir7Sc6   [FCC,FCC,cF116] (STD_PRIM d
data_Al16Ir7Sc6
_pd_phase_name Al16Ir7Sc6
_cell_length_a  8.7474765936
_cell_length_b  8.7474765936
_cell_length_c  8.7474765936
_cell_angle_alpha  60.0000000000
_cell_angle_beta  60.0000000000
_cell_angle_gamma  60.0000000000
_symmetry_space_group_name_H-M  'P1'
_symmetry_Int_Tables_Number  1
loop_
_symmetry_equiv_pos_site_id
_symmetry_equiv_pos_as_xyz
  1  x,y,z
loop_
 _atom_site_label
 _atom_site_occupancy
 _atom_site_fract_x
 _atom_site_fract_y
 _atom_site_fract_z
 _atom_site_thermal_displace_type
 _atom_site_B_iso_or_equiv
 _atom_site_type_symbol
Al1 1.0000000000 0.1195005880 0.1195005880 0.1195005880  Biso 1.0 Al
Al2 1.0000000000 0.1195005880 0.6414982360 0.1195005880  Biso 1.0 Al
Al3 1.0000000000 0.6414982360 0.1195005880 0.1195005880  Biso 1.0 Al
Al4 1.0000000000 0.1195005880 0.1195005880 0.6414982360  Biso 1.0 Al
Al5 1.0000000000 0.8804994120 0.3585017640 0.8804994120  Biso 1.0 Al
Al6 1.0000000000 0.8804994120 0.8804994120 0.8804994120  Biso 1.0 Al
Al7 1.0000000000 0.3585017640 0.8804994120 0.8804994120  Biso 1.0 Al
Al8 1.0000000000 0.8804994120 0.8804994120 0.3585017640  Biso 1.0 Al
Al9 1.0000000000 0.3322732062 0.3322732062 0.3322732062  Biso 1.0 Al
Al10 1.0000000000 0.3322732062 0.0031803813 0.3322732062  Biso 1.0 Al
Al11 1.0000000000 0.0031803813 0.3322732062 0.3322732062  Biso 1.0 Al
Al12 1.0000000000 0.3322732062 0.3322732062 0.0031803813  Biso 1.0 Al
Al13 1.0000000000 0.6677267938 0.9968196187 0.6677267938  Biso 1.0 Al
Al14 1.0000000000 0.6677267938 0.6677267938 0.6677267938  Biso 1.0 Al
Al15 1.0000000000 0.9968196187 0.6677267938 0.6677267938  Biso 1.0 Al
Al16 1.0000000000 0.6677267938 0.6677267938 0.9968196187  Biso 1.0 Al
Ir17 1.0000000000 0.0000000000 0.0000000000 0.0000000000  Biso 1.0 Ir
Ir18 1.0000000000 0.0000000000 0.0000000000 0.5000000000  Biso 1.0 Ir
Ir19 1.0000000000 0.5000000000 0.5000000000 0.0000000000  Biso 1.0 Ir
Ir20 1.0000000000 0.5000000000 0.0000000000 0.0000000000  Biso 1.0 Ir
Ir21 1.0000000000 0.0000000000 0.5000000000 0.5000000000  Biso 1.0 Ir
Ir22 1.0000000000 0.0000000000 0.5000000000 0.0000000000  Biso 1.0 Ir
Ir23 1.0000000000 0.5000000000 0.0000000000 0.5000000000  Biso 1.0 Ir
Sc24 1.0000000000 0.2953767721 0.2953767721 0.7046232279  Biso 1.0 Sc
Sc25 1.0000000000 0.7046232279 0.7046232279 0.2953767721  Biso 1.0 Sc
Sc26 1.0000000000 0.7046232279 0.2953767721 0.2953767721  Biso 1.0 Sc
Sc27 1.0000000000 0.2953767721 0.7046232279 0.7046232279  Biso 1.0 Sc
Sc28 1.0000000000 0.2953767721 0.7046232279 0.2953767721  Biso 1.0 Sc
Sc29 1.0000000000 0.7046232279 0.2953767721 0.7046232279  Biso 1.0 Sc
