# AFLOW.org Repositories
# Al16Ru7Sc6   [FCC,FCC,cF116] (STD_PRIM d
data_Al16Ru7Sc6
_pd_phase_name Al16Ru7Sc6
_cell_length_a  8.7627072588
_cell_length_b  8.7627072588
_cell_length_c  8.7627072588
_cell_angle_alpha  60.0000000000
_cell_angle_beta  60.0000000000
_cell_angle_gamma  60.0000000000
_symmetry_space_group_name_H-M  'P1'
_symmetry_Int_Tables_Number  1
loop_
_symmetry_equiv_pos_site_id
_symmetry_equiv_pos_as_xyz
  1  x,y,z
loop_
 _atom_site_label
 _atom_site_occupancy
 _atom_site_fract_x
 _atom_site_fract_y
 _atom_site_fract_z
 _atom_site_thermal_displace_type
 _atom_site_B_iso_or_equiv
 _atom_site_type_symbol
Al1 1.0000000000 0.8798595888 0.3604212335 0.8798595888  Biso 1.0 Al
Al2 1.0000000000 0.8798595888 0.8798595888 0.3604212335  Biso 1.0 Al
Al3 1.0000000000 0.8798595888 0.8798595888 0.8798595888  Biso 1.0 Al
Al4 1.0000000000 0.3604212335 0.8798595888 0.8798595888  Biso 1.0 Al
Al5 1.0000000000 0.1201404112 0.1201404112 0.6395787665  Biso 1.0 Al
Al6 1.0000000000 0.1201404112 0.6395787665 0.1201404112  Biso 1.0 Al
Al7 1.0000000000 0.1201404112 0.1201404112 0.1201404112  Biso 1.0 Al
Al8 1.0000000000 0.6395787665 0.1201404112 0.1201404112  Biso 1.0 Al
Al9 1.0000000000 0.6662998551 0.0011004346 0.6662998551  Biso 1.0 Al
Al10 1.0000000000 0.6662998551 0.6662998551 0.0011004346  Biso 1.0 Al
Al11 1.0000000000 0.6662998551 0.6662998551 0.6662998551  Biso 1.0 Al
Al12 1.0000000000 0.0011004346 0.6662998551 0.6662998551  Biso 1.0 Al
Al13 1.0000000000 0.3337001449 0.3337001449 0.9988995654  Biso 1.0 Al
Al14 1.0000000000 0.3337001449 0.9988995654 0.3337001449  Biso 1.0 Al
Al15 1.0000000000 0.3337001449 0.3337001449 0.3337001449  Biso 1.0 Al
Al16 1.0000000000 0.9988995654 0.3337001449 0.3337001449  Biso 1.0 Al
Ru17 1.0000000000 0.0000000000 0.0000000000 0.0000000000  Biso 1.0 Ru
Ru18 1.0000000000 0.5000000000 0.5000000000 0.0000000000  Biso 1.0 Ru
Ru19 1.0000000000 0.0000000000 0.0000000000 0.5000000000  Biso 1.0 Ru
Ru20 1.0000000000 0.0000000000 0.5000000000 0.0000000000  Biso 1.0 Ru
Ru21 1.0000000000 0.5000000000 0.0000000000 0.5000000000  Biso 1.0 Ru
Ru22 1.0000000000 0.0000000000 0.5000000000 0.5000000000  Biso 1.0 Ru
Ru23 1.0000000000 0.5000000000 0.0000000000 0.0000000000  Biso 1.0 Ru
Sc24 1.0000000000 0.2928395615 0.2928395615 0.7071604385  Biso 1.0 Sc
Sc25 1.0000000000 0.7071604385 0.7071604385 0.2928395615  Biso 1.0 Sc
Sc26 1.0000000000 0.7071604385 0.2928395615 0.7071604385  Biso 1.0 Sc
Sc27 1.0000000000 0.2928395615 0.7071604385 0.2928395615  Biso 1.0 Sc
Sc28 1.0000000000 0.7071604385 0.2928395615 0.2928395615  Biso 1.0 Sc
Sc29 1.0000000000 0.2928395615 0.7071604385 0.7071604385  Biso 1.0 Sc
