# AFLOW.org Repositories
# Al1C1Ti2   [HEX,HEX,hP8] (STD_PRIM doi:1
data_Al1C1Ti2
_pd_phase_name Al1C1Ti2
_cell_length_a  3.1079755159
_cell_length_b  3.1079755159
_cell_length_c  13.8375540510
_cell_angle_alpha  90.0000000000
_cell_angle_beta  90.0000000000
_cell_angle_gamma  120.0000000000
_symmetry_space_group_name_H-M  'P1'
_symmetry_Int_Tables_Number  1
loop_
_symmetry_equiv_pos_site_id
_symmetry_equiv_pos_as_xyz
  1  x,y,z
loop_
 _atom_site_label
 _atom_site_occupancy
 _atom_site_fract_x
 _atom_site_fract_y
 _atom_site_fract_z
 _atom_site_thermal_displace_type
 _atom_site_B_iso_or_equiv
 _atom_site_type_symbol
Al1 1.0000000000 0.3333192303 0.6666807697 0.7500000000  Biso 1.0 Al
Al2 1.0000000000 0.6666807697 0.3333192303 0.2500000000  Biso 1.0 Al
C3 1.0000000000 0.0000000000 0.0000000000 0.0000000000  Biso 1.0 C
C4 1.0000000000 0.0000000000 0.0000000000 0.5000000000  Biso 1.0 C
Ti5 1.0000000000 0.3333339180 0.6666660820 0.0849841595  Biso 1.0 Ti
Ti6 1.0000000000 0.6666660820 0.3333339180 0.5849841595  Biso 1.0 Ti
Ti7 1.0000000000 0.6666660820 0.3333339180 0.9150158405  Biso 1.0 Ti
Ti8 1.0000000000 0.3333339180 0.6666660820 0.4150158405  Biso 1.0 Ti
