# AFLOW.org Repositories
# Al1Cr2   [BCT,BCT2,tI6] (STD_PRIM doi:10
data_Al1Cr2
_pd_phase_name Al1Cr2
_cell_length_a  4.8330687952
_cell_length_b  4.8330687952
_cell_length_c  4.8330687952
_cell_angle_alpha  143.6352431693
_cell_angle_beta  143.6352431693
_cell_angle_gamma  52.3730816541
_symmetry_space_group_name_H-M  'P1'
_symmetry_Int_Tables_Number  1
loop_
_symmetry_equiv_pos_site_id
_symmetry_equiv_pos_as_xyz
  1  x,y,z
loop_
 _atom_site_label
 _atom_site_occupancy
 _atom_site_fract_x
 _atom_site_fract_y
 _atom_site_fract_z
 _atom_site_thermal_displace_type
 _atom_site_B_iso_or_equiv
 _atom_site_type_symbol
Al1 1.0000000000 0.0000000000 0.0000000000 0.0000000000  Biso 1.0 Al
Cr2 1.0000000000 0.6809786716 0.6809786716 0.0000000000  Biso 1.0 Cr
Cr3 1.0000000000 0.3190213284 0.3190213284 0.0000000000  Biso 1.0 Cr
