# AFLOW.org Repositories
# Al1C3Ta4   [HEX,HEX,hP16] (STD_PRIM doi:
data_Al1C3Ta4
_pd_phase_name Al1C3Ta4
_cell_length_a  3.1234724930
_cell_length_b  3.1234724930
_cell_length_c  24.8103371207
_cell_angle_alpha  90.0000000000
_cell_angle_beta  90.0000000000
_cell_angle_gamma  120.0000000000
_symmetry_space_group_name_H-M  'P1'
_symmetry_Int_Tables_Number  1
loop_
_symmetry_equiv_pos_site_id
_symmetry_equiv_pos_as_xyz
  1  x,y,z
loop_
 _atom_site_label
 _atom_site_occupancy
 _atom_site_fract_x
 _atom_site_fract_y
 _atom_site_fract_z
 _atom_site_thermal_displace_type
 _atom_site_B_iso_or_equiv
 _atom_site_type_symbol
Al1 1.0000000000 0.3333378230 0.6666689115 0.2500000000  Biso 1.0 Al
Al2 1.0000000000 0.6666621770 0.3333310885 0.7500000000  Biso 1.0 Al
C3 1.0000000000 0.0000000000 0.0000000000 0.0000000000  Biso 1.0 C
C4 1.0000000000 0.0000000000 0.0000000000 0.5000000000  Biso 1.0 C
C5 1.0000000000 0.0000000000 0.0000000000 0.1104035999  Biso 1.0 C
C6 1.0000000000 0.0000000000 0.0000000000 0.6104035999  Biso 1.0 C
C7 1.0000000000 0.0000000000 0.0000000000 0.8895964001  Biso 1.0 C
C8 1.0000000000 0.0000000000 0.0000000000 0.3895964001  Biso 1.0 C
Ta9 1.0000000000 0.3333139882 0.6666569941 0.0546761286  Biso 1.0 Ta
Ta10 1.0000000000 0.6666860118 0.3333430059 0.5546761286  Biso 1.0 Ta
Ta11 1.0000000000 0.6666860118 0.3333430059 0.9453238714  Biso 1.0 Ta
Ta12 1.0000000000 0.3333139882 0.6666569941 0.4453238714  Biso 1.0 Ta
Ta13 1.0000000000 0.6666815982 0.3333407991 0.1594880856  Biso 1.0 Ta
Ta14 1.0000000000 0.3333184018 0.6666592009 0.6594880856  Biso 1.0 Ta
Ta15 1.0000000000 0.3333184018 0.6666592009 0.8405119144  Biso 1.0 Ta
Ta16 1.0000000000 0.6666815982 0.3333407991 0.3405119144  Biso 1.0 Ta
