# AFLOW.org Repositories
# Al1Gd1O3   [ORC,ORC,oP20] (STD_PRIM doi:
data_Al1Gd1O3
_pd_phase_name Al1Gd1O3
_cell_length_a  5.2893762070
_cell_length_b  5.3698133503
_cell_length_c  7.5178984613
_cell_angle_alpha  90.0000000000
_cell_angle_beta  90.0000000000
_cell_angle_gamma  90.0000000000
_symmetry_space_group_name_H-M  'P1'
_symmetry_Int_Tables_Number  1
loop_
_symmetry_equiv_pos_site_id
_symmetry_equiv_pos_as_xyz
  1  x,y,z
loop_
 _atom_site_label
 _atom_site_occupancy
 _atom_site_fract_x
 _atom_site_fract_y
 _atom_site_fract_z
 _atom_site_thermal_displace_type
 _atom_site_B_iso_or_equiv
 _atom_site_type_symbol
Al1 1.0000000000 0.0000000000 0.0000000000 0.0000000000  Biso 1.0 Al
Al2 1.0000000000 0.5000000000 0.5000000000 0.0000000000  Biso 1.0 Al
Al3 1.0000000000 0.0000000000 0.0000000000 0.5000000000  Biso 1.0 Al
Al4 1.0000000000 0.5000000000 0.5000000000 0.5000000000  Biso 1.0 Al
Gd5 1.0000000000 0.0100133197 0.4572750342 0.7500000000  Biso 1.0 Gd
Gd6 1.0000000000 0.5100133197 0.0427249658 0.2500000000  Biso 1.0 Gd
Gd7 1.0000000000 0.9899866803 0.5427249658 0.2500000000  Biso 1.0 Gd
Gd8 1.0000000000 0.4899866803 0.9572750342 0.7500000000  Biso 1.0 Gd
O9 1.0000000000 0.9228629114 0.0171737798 0.7500000000  Biso 1.0 O
O10 1.0000000000 0.4228629114 0.4828262202 0.2500000000  Biso 1.0 O
O11 1.0000000000 0.0771370886 0.9828262202 0.2500000000  Biso 1.0 O
O12 1.0000000000 0.5771370886 0.5171737798 0.7500000000  Biso 1.0 O
O13 1.0000000000 0.7860104385 0.2865868354 0.0411460366  Biso 1.0 O
O14 1.0000000000 0.2860104385 0.2134131646 0.9588539634  Biso 1.0 O
O15 1.0000000000 0.2139895615 0.7134131646 0.5411460366  Biso 1.0 O
O16 1.0000000000 0.7139895615 0.7865868354 0.4588539634  Biso 1.0 O
O17 1.0000000000 0.2139895615 0.7134131646 0.9588539634  Biso 1.0 O
O18 1.0000000000 0.7139895615 0.7865868354 0.0411460366  Biso 1.0 O
O19 1.0000000000 0.7860104385 0.2865868354 0.4588539634  Biso 1.0 O
O20 1.0000000000 0.2860104385 0.2134131646 0.5411460366  Biso 1.0 O
