# AFLOW.org Repositories
# Al1Li1   [HEX,HEX,hP8] (STD_PRIM doi:10.
data_Al1Li1
_pd_phase_name Al1Li1
_cell_length_a  4.4660448556
_cell_length_b  4.4660448556
_cell_length_c  8.6294664213
_cell_angle_alpha  90.0000000000
_cell_angle_beta  90.0000000000
_cell_angle_gamma  120.0000000000
_symmetry_space_group_name_H-M  'P1'
_symmetry_Int_Tables_Number  1
loop_
_symmetry_equiv_pos_site_id
_symmetry_equiv_pos_as_xyz
  1  x,y,z
loop_
 _atom_site_label
 _atom_site_occupancy
 _atom_site_fract_x
 _atom_site_fract_y
 _atom_site_fract_z
 _atom_site_thermal_displace_type
 _atom_site_B_iso_or_equiv
 _atom_site_type_symbol
Al1 1.0000000000 0.0000000000 0.0000000000 0.2500000000  Biso 1.0 Al
Al2 1.0000000000 0.0000000000 0.0000000000 0.7500000000  Biso 1.0 Al
Al3 1.0000000000 0.6666682997 0.3333365994 0.7500000000  Biso 1.0 Al
Al4 1.0000000000 0.3333317003 0.6666634006 0.2500000000  Biso 1.0 Al
Li5 1.0000000000 0.6666744116 0.3333488232 0.0834874563  Biso 1.0 Li
Li6 1.0000000000 0.3333255884 0.6666511768 0.5834874563  Biso 1.0 Li
Li7 1.0000000000 0.3333255884 0.6666511768 0.9165125437  Biso 1.0 Li
Li8 1.0000000000 0.6666744116 0.3333488232 0.4165125437  Biso 1.0 Li
