# AFLOW.org Repositories
# Al2B1Re3   [FCC,FCC,cF96] (STD_PRIM doi:
data_Al2B1Re3
_pd_phase_name Al2B1Re3
_cell_length_a  7.6185066112
_cell_length_b  7.6185066112
_cell_length_c  7.6185066112
_cell_angle_alpha  60.0000000000
_cell_angle_beta  60.0000000000
_cell_angle_gamma  60.0000000000
_symmetry_space_group_name_H-M  'P1'
_symmetry_Int_Tables_Number  1
loop_
_symmetry_equiv_pos_site_id
_symmetry_equiv_pos_as_xyz
  1  x,y,z
loop_
 _atom_site_label
 _atom_site_occupancy
 _atom_site_fract_x
 _atom_site_fract_y
 _atom_site_fract_z
 _atom_site_thermal_displace_type
 _atom_site_B_iso_or_equiv
 _atom_site_type_symbol
Al1 1.0000000000 0.5088050537 0.1637316488 0.1637316488  Biso 1.0 Al
Al2 1.0000000000 0.1637316488 0.1637316488 0.5088050537  Biso 1.0 Al
Al3 1.0000000000 0.1637316488 0.5088050537 0.1637316488  Biso 1.0 Al
Al4 1.0000000000 0.1637316488 0.1637316488 0.1637316488  Biso 1.0 Al
Al5 1.0000000000 0.5862683512 0.5862683512 0.2411949463  Biso 1.0 Al
Al6 1.0000000000 0.2411949463 0.5862683512 0.5862683512  Biso 1.0 Al
Al7 1.0000000000 0.5862683512 0.2411949463 0.5862683512  Biso 1.0 Al
Al8 1.0000000000 0.5862683512 0.5862683512 0.5862683512  Biso 1.0 Al
B9 1.0000000000 0.8750000000 0.3750000000 0.3750000000  Biso 1.0 B
B10 1.0000000000 0.3750000000 0.3750000000 0.8750000000  Biso 1.0 B
B11 1.0000000000 0.3750000000 0.8750000000 0.3750000000  Biso 1.0 B
B12 1.0000000000 0.3750000000 0.3750000000 0.3750000000  Biso 1.0 B
Re13 1.0000000000 0.1924391909 0.8075608091 0.8075608091  Biso 1.0 Re
Re14 1.0000000000 0.8075608091 0.1924391909 0.1924391909  Biso 1.0 Re
Re15 1.0000000000 0.1924391909 0.1924391909 0.8075608091  Biso 1.0 Re
Re16 1.0000000000 0.8075608091 0.8075608091 0.1924391909  Biso 1.0 Re
Re17 1.0000000000 0.1924391909 0.8075608091 0.1924391909  Biso 1.0 Re
Re18 1.0000000000 0.8075608091 0.1924391909 0.8075608091  Biso 1.0 Re
Re19 1.0000000000 0.9424391909 0.9424391909 0.5575608091  Biso 1.0 Re
Re20 1.0000000000 0.5575608091 0.5575608091 0.9424391909  Biso 1.0 Re
Re21 1.0000000000 0.9424391909 0.5575608091 0.5575608091  Biso 1.0 Re
Re22 1.0000000000 0.5575608091 0.9424391909 0.9424391909  Biso 1.0 Re
Re23 1.0000000000 0.5575608091 0.9424391909 0.5575608091  Biso 1.0 Re
Re24 1.0000000000 0.9424391909 0.5575608091 0.9424391909  Biso 1.0 Re
