# AFLOW.org Repositories
# Al2Ho3   [TET,TET,tP20] (STD_PRIM doi:10
data_Al2Ho3
_pd_phase_name Al2Ho3
_cell_length_a  8.1993582639
_cell_length_b  8.1993582639
_cell_length_c  7.5614142847
_cell_angle_alpha  90.0000000000
_cell_angle_beta  90.0000000000
_cell_angle_gamma  90.0000000000
_symmetry_space_group_name_H-M  'P1'
_symmetry_Int_Tables_Number  1
loop_
_symmetry_equiv_pos_site_id
_symmetry_equiv_pos_as_xyz
  1  x,y,z
loop_
 _atom_site_label
 _atom_site_occupancy
 _atom_site_fract_x
 _atom_site_fract_y
 _atom_site_fract_z
 _atom_site_thermal_displace_type
 _atom_site_B_iso_or_equiv
 _atom_site_type_symbol
Al1 1.0000000000 0.3804530031 0.3804530031 0.0600612882  Biso 1.0 Al
Al2 1.0000000000 0.6195469969 0.6195469969 0.0600612882  Biso 1.0 Al
Al3 1.0000000000 0.1195469969 0.8804530031 0.5600612882  Biso 1.0 Al
Al4 1.0000000000 0.8804530031 0.1195469969 0.5600612882  Biso 1.0 Al
Al5 1.0000000000 0.3805218365 0.3805218365 0.4519850330  Biso 1.0 Al
Al6 1.0000000000 0.6194781635 0.6194781635 0.4519850330  Biso 1.0 Al
Al7 1.0000000000 0.1194781635 0.8805218365 0.9519850330  Biso 1.0 Al
Al8 1.0000000000 0.8805218365 0.1194781635 0.9519850330  Biso 1.0 Al
Ho9 1.0000000000 0.0000000000 0.5000000000 0.0067713375  Biso 1.0 Ho
Ho10 1.0000000000 0.0000000000 0.5000000000 0.5067713375  Biso 1.0 Ho
Ho11 1.0000000000 0.5000000000 0.0000000000 0.5067713375  Biso 1.0 Ho
Ho12 1.0000000000 0.5000000000 0.0000000000 0.0067713375  Biso 1.0 Ho
Ho13 1.0000000000 0.1499248431 0.1499248431 0.2562005390  Biso 1.0 Ho
Ho14 1.0000000000 0.8500751569 0.8500751569 0.2562005390  Biso 1.0 Ho
Ho15 1.0000000000 0.3500751569 0.6499248431 0.7562005390  Biso 1.0 Ho
Ho16 1.0000000000 0.6499248431 0.3500751569 0.7562005390  Biso 1.0 Ho
Ho17 1.0000000000 0.2011421359 0.2011421359 0.7559818023  Biso 1.0 Ho
Ho18 1.0000000000 0.7988578641 0.7988578641 0.7559818023  Biso 1.0 Ho
Ho19 1.0000000000 0.2988578641 0.7011421359 0.2559818023  Biso 1.0 Ho
Ho20 1.0000000000 0.7011421359 0.2988578641 0.2559818023  Biso 1.0 Ho
