# AFLOW.org Repositories
# Al2Hg1Se4   [FCC,FCC,cF56] (STD_PRIM doi
data_Al2Hg1Se4
_pd_phase_name Al2Hg1Se4
_cell_length_a  7.7771772168
_cell_length_b  7.7771772168
_cell_length_c  7.7771772168
_cell_angle_alpha  60.0000000000
_cell_angle_beta  60.0000000000
_cell_angle_gamma  60.0000000000
_symmetry_space_group_name_H-M  'P1'
_symmetry_Int_Tables_Number  1
loop_
_symmetry_equiv_pos_site_id
_symmetry_equiv_pos_as_xyz
  1  x,y,z
loop_
 _atom_site_label
 _atom_site_occupancy
 _atom_site_fract_x
 _atom_site_fract_y
 _atom_site_fract_z
 _atom_site_thermal_displace_type
 _atom_site_B_iso_or_equiv
 _atom_site_type_symbol
Al1 1.0000000000 0.5000000000 0.5000000000 0.5000000000  Biso 1.0 Al
Al2 1.0000000000 0.0000000000 0.5000000000 0.5000000000  Biso 1.0 Al
Al3 1.0000000000 0.5000000000 0.5000000000 0.0000000000  Biso 1.0 Al
Al4 1.0000000000 0.5000000000 0.0000000000 0.5000000000  Biso 1.0 Al
Hg5 1.0000000000 0.1250000000 0.1250000000 0.1250000000  Biso 1.0 Hg
Hg6 1.0000000000 0.8750000000 0.8750000000 0.8750000000  Biso 1.0 Hg
Se7 1.0000000000 0.2647380766 0.2647380766 0.2647380766  Biso 1.0 Se
Se8 1.0000000000 0.7057857701 0.2647380766 0.2647380766  Biso 1.0 Se
Se9 1.0000000000 0.2647380766 0.2647380766 0.7057857701  Biso 1.0 Se
Se10 1.0000000000 0.2647380766 0.7057857701 0.2647380766  Biso 1.0 Se
Se11 1.0000000000 0.2942142299 0.7352619234 0.7352619234  Biso 1.0 Se
Se12 1.0000000000 0.7352619234 0.7352619234 0.7352619234  Biso 1.0 Se
Se13 1.0000000000 0.7352619234 0.7352619234 0.2942142299  Biso 1.0 Se
Se14 1.0000000000 0.7352619234 0.2942142299 0.7352619234  Biso 1.0 Se
