# AFLOW.org Repositories
# Al2N1Nb3   [CUB,CUB,cP24] (STD_PRIM doi:
data_Al2N1Nb3
_pd_phase_name Al2N1Nb3
_cell_length_a  7.0797632366
_cell_length_b  7.0797632366
_cell_length_c  7.0797632366
_cell_angle_alpha  90.0000000000
_cell_angle_beta  90.0000000000
_cell_angle_gamma  90.0000000000
_symmetry_space_group_name_H-M  'P1'
_symmetry_Int_Tables_Number  1
loop_
_symmetry_equiv_pos_site_id
_symmetry_equiv_pos_as_xyz
  1  x,y,z
loop_
 _atom_site_label
 _atom_site_occupancy
 _atom_site_fract_x
 _atom_site_fract_y
 _atom_site_fract_z
 _atom_site_thermal_displace_type
 _atom_site_B_iso_or_equiv
 _atom_site_type_symbol
Al1 1.0000000000 0.9288251562 0.9288251562 0.0711748438  Biso 1.0 Al
Al2 1.0000000000 0.5711748438 0.0711748438 0.5711748438  Biso 1.0 Al
Al3 1.0000000000 0.0711748438 0.4288251562 0.4288251562  Biso 1.0 Al
Al4 1.0000000000 0.4288251562 0.5711748438 0.9288251562  Biso 1.0 Al
Al5 1.0000000000 0.1788251562 0.6788251562 0.1788251562  Biso 1.0 Al
Al6 1.0000000000 0.3211748438 0.3211748438 0.6788251562  Biso 1.0 Al
Al7 1.0000000000 0.6788251562 0.8211748438 0.8211748438  Biso 1.0 Al
Al8 1.0000000000 0.8211748438 0.1788251562 0.3211748438  Biso 1.0 Al
N9 1.0000000000 0.6250000000 0.6250000000 0.3750000000  Biso 1.0 N
N10 1.0000000000 0.8750000000 0.3750000000 0.8750000000  Biso 1.0 N
N11 1.0000000000 0.3750000000 0.1250000000 0.1250000000  Biso 1.0 N
N12 1.0000000000 0.1250000000 0.8750000000 0.6250000000  Biso 1.0 N
Nb13 1.0000000000 0.8750000000 0.7950092360 0.4549907640  Biso 1.0 Nb
Nb14 1.0000000000 0.6250000000 0.2049907640 0.9549907640  Biso 1.0 Nb
Nb15 1.0000000000 0.1250000000 0.2950092360 0.0450092360  Biso 1.0 Nb
Nb16 1.0000000000 0.3750000000 0.7049907640 0.5450092360  Biso 1.0 Nb
Nb17 1.0000000000 0.5450092360 0.8750000000 0.2049907640  Biso 1.0 Nb
Nb18 1.0000000000 0.0450092360 0.6250000000 0.7950092360  Biso 1.0 Nb
Nb19 1.0000000000 0.9549907640 0.1250000000 0.7049907640  Biso 1.0 Nb
Nb20 1.0000000000 0.4549907640 0.3750000000 0.2950092360  Biso 1.0 Nb
Nb21 1.0000000000 0.7950092360 0.5450092360 0.1250000000  Biso 1.0 Nb
Nb22 1.0000000000 0.2049907640 0.0450092360 0.3750000000  Biso 1.0 Nb
Nb23 1.0000000000 0.2950092360 0.9549907640 0.8750000000  Biso 1.0 Nb
Nb24 1.0000000000 0.7049907640 0.4549907640 0.6250000000  Biso 1.0 Nb
