# AFLOW.org Repositories
# Al2O5Si1   [ORC,ORC,oP32] (STD_PRIM doi:
data_Al2O5Si1
_pd_phase_name Al2O5Si1
_cell_length_a  5.6124254026
_cell_length_b  7.8634187576
_cell_length_c  7.9723640677
_cell_angle_alpha  90.0000000000
_cell_angle_beta  90.0000000000
_cell_angle_gamma  90.0000000000
_symmetry_space_group_name_H-M  'P1'
_symmetry_Int_Tables_Number  1
loop_
_symmetry_equiv_pos_site_id
_symmetry_equiv_pos_as_xyz
  1  x,y,z
loop_
 _atom_site_label
 _atom_site_occupancy
 _atom_site_fract_x
 _atom_site_fract_y
 _atom_site_fract_z
 _atom_site_thermal_displace_type
 _atom_site_B_iso_or_equiv
 _atom_site_type_symbol
Al1 1.0000000000 0.7582791710 0.0000000000 0.0000000000  Biso 1.0 Al
Al2 1.0000000000 0.7417208290 0.5000000000 0.5000000000  Biso 1.0 Al
Al3 1.0000000000 0.2417208290 0.0000000000 0.0000000000  Biso 1.0 Al
Al4 1.0000000000 0.2582791710 0.5000000000 0.5000000000  Biso 1.0 Al
Al5 1.0000000000 0.5000000000 0.3704492869 0.8609569048  Biso 1.0 Al
Al6 1.0000000000 0.5000000000 0.6295507131 0.1390430952  Biso 1.0 Al
Al7 1.0000000000 0.0000000000 0.1295507131 0.3609569048  Biso 1.0 Al
Al8 1.0000000000 0.0000000000 0.8704492869 0.6390430952  Biso 1.0 Al
O9 1.0000000000 0.0000000000 0.4247173220 0.6371763057  Biso 1.0 O
O10 1.0000000000 0.0000000000 0.5752826780 0.3628236943  Biso 1.0 O
O11 1.0000000000 0.5000000000 0.0752826780 0.1371763057  Biso 1.0 O
O12 1.0000000000 0.5000000000 0.9247173220 0.8628236943  Biso 1.0 O
O13 1.0000000000 0.0000000000 0.1026862142 0.5995600369  Biso 1.0 O
O14 1.0000000000 0.0000000000 0.8973137858 0.4004399631  Biso 1.0 O
O15 1.0000000000 0.5000000000 0.3973137858 0.0995600369  Biso 1.0 O
O16 1.0000000000 0.5000000000 0.6026862142 0.9004399631  Biso 1.0 O
O17 1.0000000000 0.5000000000 0.4233707749 0.6370860277  Biso 1.0 O
O18 1.0000000000 0.5000000000 0.5766292251 0.3629139723  Biso 1.0 O
O19 1.0000000000 0.0000000000 0.0766292251 0.1370860277  Biso 1.0 O
O20 1.0000000000 0.0000000000 0.9233707749 0.8629139723  Biso 1.0 O
O21 1.0000000000 0.7603204384 0.2304937664 0.8663369464  Biso 1.0 O
O22 1.0000000000 0.7603204384 0.7695062336 0.1336630536  Biso 1.0 O
O23 1.0000000000 0.7396795616 0.2695062336 0.3663369464  Biso 1.0 O
O24 1.0000000000 0.7396795616 0.7304937664 0.6336630536  Biso 1.0 O
O25 1.0000000000 0.2396795616 0.7695062336 0.1336630536  Biso 1.0 O
O26 1.0000000000 0.2396795616 0.2304937664 0.8663369464  Biso 1.0 O
O27 1.0000000000 0.2603204384 0.7304937664 0.6336630536  Biso 1.0 O
O28 1.0000000000 0.2603204384 0.2695062336 0.3663369464  Biso 1.0 O
Si29 1.0000000000 0.0000000000 0.2458790424 0.7481543507  Biso 1.0 Si
Si30 1.0000000000 0.0000000000 0.7541209576 0.2518456493  Biso 1.0 Si
Si31 1.0000000000 0.5000000000 0.2541209576 0.2481543507  Biso 1.0 Si
Si32 1.0000000000 0.5000000000 0.7458790424 0.7518456493  Biso 1.0 Si
