# AFLOW.org Repositories
# Al2S4Zn1   [FCC,FCC,cF56] (STD_PRIM doi:
data_Al2S4Zn1
_pd_phase_name Al2S4Zn1
_cell_length_a  7.1026998160
_cell_length_b  7.1026998160
_cell_length_c  7.1026998160
_cell_angle_alpha  60.0000000000
_cell_angle_beta  60.0000000000
_cell_angle_gamma  60.0000000000
_symmetry_space_group_name_H-M  'P1'
_symmetry_Int_Tables_Number  1
loop_
_symmetry_equiv_pos_site_id
_symmetry_equiv_pos_as_xyz
  1  x,y,z
loop_
 _atom_site_label
 _atom_site_occupancy
 _atom_site_fract_x
 _atom_site_fract_y
 _atom_site_fract_z
 _atom_site_thermal_displace_type
 _atom_site_B_iso_or_equiv
 _atom_site_type_symbol
Al1 1.0000000000 0.0000000000 0.0000000000 0.0000000000  Biso 1.0 Al
Al2 1.0000000000 0.5000000000 0.5000000000 0.0000000000  Biso 1.0 Al
Al3 1.0000000000 0.0000000000 0.5000000000 0.5000000000  Biso 1.0 Al
Al4 1.0000000000 0.0000000000 0.5000000000 0.0000000000  Biso 1.0 Al
S5 1.0000000000 0.7589506515 0.7231480455 0.7589506515  Biso 1.0 S
S6 1.0000000000 0.2231480455 0.2589506515 0.7589506515  Biso 1.0 S
S7 1.0000000000 0.7589506515 0.2589506515 0.2231480455  Biso 1.0 S
S8 1.0000000000 0.7589506515 0.2589506515 0.7589506515  Biso 1.0 S
S9 1.0000000000 0.7768519545 0.7410493485 0.2410493485  Biso 1.0 S
S10 1.0000000000 0.2410493485 0.2768519545 0.2410493485  Biso 1.0 S
S11 1.0000000000 0.2410493485 0.7410493485 0.7768519545  Biso 1.0 S
S12 1.0000000000 0.2410493485 0.7410493485 0.2410493485  Biso 1.0 S
Zn13 1.0000000000 0.6250000000 0.1250000000 0.6250000000  Biso 1.0 Zn
Zn14 1.0000000000 0.3750000000 0.8750000000 0.3750000000  Biso 1.0 Zn
