# AFLOW.org Repositories
# Al2Zr1   [HEX,HEX,hP12] (STD_PRIM doi:10
data_Al2Zr1
_pd_phase_name Al2Zr1
_cell_length_a  5.3040571913
_cell_length_b  5.3040571913
_cell_length_c  8.7719107230
_cell_angle_alpha  90.0000000000
_cell_angle_beta  90.0000000000
_cell_angle_gamma  120.0000000000
_symmetry_space_group_name_H-M  'P1'
_symmetry_Int_Tables_Number  1
loop_
_symmetry_equiv_pos_site_id
_symmetry_equiv_pos_as_xyz
  1  x,y,z
loop_
 _atom_site_label
 _atom_site_occupancy
 _atom_site_fract_x
 _atom_site_fract_y
 _atom_site_fract_z
 _atom_site_thermal_displace_type
 _atom_site_B_iso_or_equiv
 _atom_site_type_symbol
Al1 1.0000000000 0.0000000000 0.0000000000 0.0000000000  Biso 1.0 Al
Al2 1.0000000000 0.0000000000 0.0000000000 0.5000000000  Biso 1.0 Al
Al3 1.0000000000 0.6579764391 0.8289951320 0.2500000000  Biso 1.0 Al
Al4 1.0000000000 0.1710186929 0.8289951320 0.2500000000  Biso 1.0 Al
Al5 1.0000000000 0.1710151780 0.3420303560 0.2500000000  Biso 1.0 Al
Al6 1.0000000000 0.3420235609 0.1710048680 0.7500000000  Biso 1.0 Al
Al7 1.0000000000 0.8289813071 0.1710048680 0.7500000000  Biso 1.0 Al
Al8 1.0000000000 0.8289848220 0.6579696440 0.7500000000  Biso 1.0 Al
Zr9 1.0000000000 0.6666667745 0.3333335491 0.0643175990  Biso 1.0 Zr
Zr10 1.0000000000 0.3333332255 0.6666664509 0.5643175990  Biso 1.0 Zr
Zr11 1.0000000000 0.3333332255 0.6666664509 0.9356824010  Biso 1.0 Zr
Zr12 1.0000000000 0.6666667745 0.3333335491 0.4356824010  Biso 1.0 Zr
