# AFLOW.org Repositories
# Al3Dy1   [HEX,HEX,hP16] (STD_PRIM doi:10
data_Al3Dy1
_pd_phase_name Al3Dy1
_cell_length_a  6.1185377151
_cell_length_b  6.1185377151
_cell_length_c  9.5494788173
_cell_angle_alpha  90.0000000000
_cell_angle_beta  90.0000000000
_cell_angle_gamma  120.0000000000
_symmetry_space_group_name_H-M  'P1'
_symmetry_Int_Tables_Number  1
loop_
_symmetry_equiv_pos_site_id
_symmetry_equiv_pos_as_xyz
  1  x,y,z
loop_
 _atom_site_label
 _atom_site_occupancy
 _atom_site_fract_x
 _atom_site_fract_y
 _atom_site_fract_z
 _atom_site_thermal_displace_type
 _atom_site_B_iso_or_equiv
 _atom_site_type_symbol
Al1 1.0000000000 0.5000000000 0.5000000000 0.0000000000  Biso 1.0 Al
Al2 1.0000000000 0.5000000000 0.0000000000 0.0000000000  Biso 1.0 Al
Al3 1.0000000000 0.0000000000 0.5000000000 0.0000000000  Biso 1.0 Al
Al4 1.0000000000 0.5000000000 0.5000000000 0.5000000000  Biso 1.0 Al
Al5 1.0000000000 0.5000000000 0.0000000000 0.5000000000  Biso 1.0 Al
Al6 1.0000000000 0.0000000000 0.5000000000 0.5000000000  Biso 1.0 Al
Al7 1.0000000000 0.8170636637 0.1829421375 0.2500000000  Biso 1.0 Al
Al8 1.0000000000 0.8170636637 0.6341215262 0.2500000000  Biso 1.0 Al
Al9 1.0000000000 0.3658848280 0.1829424140 0.2500000000  Biso 1.0 Al
Al10 1.0000000000 0.1829363363 0.8170578625 0.7500000000  Biso 1.0 Al
Al11 1.0000000000 0.1829363363 0.3658784738 0.7500000000  Biso 1.0 Al
Al12 1.0000000000 0.6341151720 0.8170575860 0.7500000000  Biso 1.0 Al
Dy13 1.0000000000 0.0000000000 0.0000000000 0.0000000000  Biso 1.0 Dy
Dy14 1.0000000000 0.0000000000 0.0000000000 0.5000000000  Biso 1.0 Dy
Dy15 1.0000000000 0.3333373824 0.6666686912 0.2500000000  Biso 1.0 Dy
Dy16 1.0000000000 0.6666626176 0.3333313088 0.7500000000  Biso 1.0 Dy
