# AFLOW.org Repositories
# Al3Ni1   [ORC,ORC,oP16] (STD_PRIM doi:10
data_Al3Ni1
_pd_phase_name Al3Ni1
_cell_length_a  4.8151572390
_cell_length_b  6.5489636920
_cell_length_c  7.3705894708
_cell_angle_alpha  90.0000000000
_cell_angle_beta  90.0000000000
_cell_angle_gamma  90.0000000000
_symmetry_space_group_name_H-M  'P1'
_symmetry_Int_Tables_Number  1
loop_
_symmetry_equiv_pos_site_id
_symmetry_equiv_pos_as_xyz
  1  x,y,z
loop_
 _atom_site_label
 _atom_site_occupancy
 _atom_site_fract_x
 _atom_site_fract_y
 _atom_site_fract_z
 _atom_site_thermal_displace_type
 _atom_site_B_iso_or_equiv
 _atom_site_type_symbol
Al1 1.0000000000 0.0872723019 0.0070588665 0.7500000000  Biso 1.0 Al
Al2 1.0000000000 0.5872723019 0.4929411335 0.2500000000  Biso 1.0 Al
Al3 1.0000000000 0.9127276981 0.9929411335 0.2500000000  Biso 1.0 Al
Al4 1.0000000000 0.4127276981 0.5070588665 0.7500000000  Biso 1.0 Al
Al5 1.0000000000 0.6384372738 0.1717998854 0.9459301068  Biso 1.0 Al
Al6 1.0000000000 0.1384372738 0.3282001146 0.0540698932  Biso 1.0 Al
Al7 1.0000000000 0.3615627262 0.8282001146 0.4459301068  Biso 1.0 Al
Al8 1.0000000000 0.8615627262 0.6717998854 0.5540698932  Biso 1.0 Al
Al9 1.0000000000 0.3615627262 0.8282001146 0.0540698932  Biso 1.0 Al
Al10 1.0000000000 0.8615627262 0.6717998854 0.9459301068  Biso 1.0 Al
Al11 1.0000000000 0.6384372738 0.1717998854 0.5540698932  Biso 1.0 Al
Al12 1.0000000000 0.1384372738 0.3282001146 0.4459301068  Biso 1.0 Al
Ni13 1.0000000000 0.5591090046 0.8708643167 0.7500000000  Biso 1.0 Ni
Ni14 1.0000000000 0.0591090046 0.6291356833 0.2500000000  Biso 1.0 Ni
Ni15 1.0000000000 0.4408909954 0.1291356833 0.2500000000  Biso 1.0 Ni
Ni16 1.0000000000 0.9408909954 0.3708643167 0.7500000000  Biso 1.0 Ni
