# AFLOW.org Repositories
# Al4Cu9   [CUB,CUB,cP52] (STD_PRIM doi:10
data_Al4Cu9
_pd_phase_name Al4Cu9
_cell_length_a  8.7131553454
_cell_length_b  8.7131553454
_cell_length_c  8.7131553454
_cell_angle_alpha  90.0000000000
_cell_angle_beta  90.0000000000
_cell_angle_gamma  90.0000000000
_symmetry_space_group_name_H-M  'P1'
_symmetry_Int_Tables_Number  1
loop_
_symmetry_equiv_pos_site_id
_symmetry_equiv_pos_as_xyz
  1  x,y,z
loop_
 _atom_site_label
 _atom_site_occupancy
 _atom_site_fract_x
 _atom_site_fract_y
 _atom_site_fract_z
 _atom_site_thermal_displace_type
 _atom_site_B_iso_or_equiv
 _atom_site_type_symbol
Al1 1.0000000000 0.8806010263 0.8806010263 0.1193989737  Biso 1.0 Al
Al2 1.0000000000 0.1193989737 0.1193989737 0.1193989737  Biso 1.0 Al
Al3 1.0000000000 0.1193989737 0.8806010263 0.8806010263  Biso 1.0 Al
Al4 1.0000000000 0.8806010263 0.1193989737 0.8806010263  Biso 1.0 Al
Al5 1.0000000000 0.1901239209 0.1901239209 0.5349322695  Biso 1.0 Al
Al6 1.0000000000 0.8098760791 0.8098760791 0.5349322695  Biso 1.0 Al
Al7 1.0000000000 0.8098760791 0.1901239209 0.4650677305  Biso 1.0 Al
Al8 1.0000000000 0.1901239209 0.8098760791 0.4650677305  Biso 1.0 Al
Al9 1.0000000000 0.4650677305 0.1901239209 0.8098760791  Biso 1.0 Al
Al10 1.0000000000 0.4650677305 0.8098760791 0.1901239209  Biso 1.0 Al
Al11 1.0000000000 0.5349322695 0.8098760791 0.8098760791  Biso 1.0 Al
Al12 1.0000000000 0.5349322695 0.1901239209 0.1901239209  Biso 1.0 Al
Al13 1.0000000000 0.1901239209 0.4650677305 0.8098760791  Biso 1.0 Al
Al14 1.0000000000 0.8098760791 0.4650677305 0.1901239209  Biso 1.0 Al
Al15 1.0000000000 0.1901239209 0.5349322695 0.1901239209  Biso 1.0 Al
Al16 1.0000000000 0.8098760791 0.5349322695 0.8098760791  Biso 1.0 Al
Cu17 1.0000000000 0.3940349750 0.3940349750 0.6059650250  Biso 1.0 Cu
Cu18 1.0000000000 0.6059650250 0.6059650250 0.6059650250  Biso 1.0 Cu
Cu19 1.0000000000 0.6059650250 0.3940349750 0.3940349750  Biso 1.0 Cu
Cu20 1.0000000000 0.3940349750 0.6059650250 0.3940349750  Biso 1.0 Cu
Cu21 1.0000000000 0.1699587857 0.1699587857 0.8300412143  Biso 1.0 Cu
Cu22 1.0000000000 0.8300412143 0.8300412143 0.8300412143  Biso 1.0 Cu
Cu23 1.0000000000 0.8300412143 0.1699587857 0.1699587857  Biso 1.0 Cu
Cu24 1.0000000000 0.1699587857 0.8300412143 0.1699587857  Biso 1.0 Cu
Cu25 1.0000000000 0.6745966095 0.6745966095 0.3254033905  Biso 1.0 Cu
Cu26 1.0000000000 0.3254033905 0.3254033905 0.3254033905  Biso 1.0 Cu
Cu27 1.0000000000 0.3254033905 0.6745966095 0.6745966095  Biso 1.0 Cu
Cu28 1.0000000000 0.6745966095 0.3254033905 0.6745966095  Biso 1.0 Cu
Cu29 1.0000000000 0.6440644593 0.0000000000 0.0000000000  Biso 1.0 Cu
Cu30 1.0000000000 0.3559355407 0.0000000000 0.0000000000  Biso 1.0 Cu
Cu31 1.0000000000 0.0000000000 0.6440644593 0.0000000000  Biso 1.0 Cu
Cu32 1.0000000000 0.0000000000 0.3559355407 0.0000000000  Biso 1.0 Cu
Cu33 1.0000000000 0.0000000000 0.0000000000 0.3559355407  Biso 1.0 Cu
Cu34 1.0000000000 0.0000000000 0.0000000000 0.6440644593  Biso 1.0 Cu
Cu35 1.0000000000 0.1450480413 0.5000000000 0.5000000000  Biso 1.0 Cu
Cu36 1.0000000000 0.8549519587 0.5000000000 0.5000000000  Biso 1.0 Cu
Cu37 1.0000000000 0.5000000000 0.1450480413 0.5000000000  Biso 1.0 Cu
Cu38 1.0000000000 0.5000000000 0.8549519587 0.5000000000  Biso 1.0 Cu
Cu39 1.0000000000 0.5000000000 0.5000000000 0.8549519587  Biso 1.0 Cu
Cu40 1.0000000000 0.5000000000 0.5000000000 0.1450480413  Biso 1.0 Cu
Cu41 1.0000000000 0.6845456792 0.6845456792 0.0321677472  Biso 1.0 Cu
Cu42 1.0000000000 0.3154543208 0.3154543208 0.0321677472  Biso 1.0 Cu
Cu43 1.0000000000 0.3154543208 0.6845456792 0.9678322528  Biso 1.0 Cu
Cu44 1.0000000000 0.6845456792 0.3154543208 0.9678322528  Biso 1.0 Cu
Cu45 1.0000000000 0.9678322528 0.6845456792 0.3154543208  Biso 1.0 Cu
Cu46 1.0000000000 0.9678322528 0.3154543208 0.6845456792  Biso 1.0 Cu
Cu47 1.0000000000 0.0321677472 0.3154543208 0.3154543208  Biso 1.0 Cu
Cu48 1.0000000000 0.0321677472 0.6845456792 0.6845456792  Biso 1.0 Cu
Cu49 1.0000000000 0.6845456792 0.9678322528 0.3154543208  Biso 1.0 Cu
Cu50 1.0000000000 0.3154543208 0.9678322528 0.6845456792  Biso 1.0 Cu
Cu51 1.0000000000 0.6845456792 0.0321677472 0.6845456792  Biso 1.0 Cu
Cu52 1.0000000000 0.3154543208 0.0321677472 0.3154543208  Biso 1.0 Cu
