# AFLOW.org Repositories
# Al4La1   [BCT,BCT2,tI10] (STD_PRIM doi:1
data_Al4La1
_pd_phase_name Al4La1
_cell_length_a  6.4296957921
_cell_length_b  6.4296957921
_cell_length_c  6.4296957921
_cell_angle_alpha  140.3250790251
_cell_angle_beta  140.3250790251
_cell_angle_gamma  57.3600436555
_symmetry_space_group_name_H-M  'P1'
_symmetry_Int_Tables_Number  1
loop_
_symmetry_equiv_pos_site_id
_symmetry_equiv_pos_as_xyz
  1  x,y,z
loop_
 _atom_site_label
 _atom_site_occupancy
 _atom_site_fract_x
 _atom_site_fract_y
 _atom_site_fract_z
 _atom_site_thermal_displace_type
 _atom_site_B_iso_or_equiv
 _atom_site_type_symbol
Al1 1.0000000000 0.2500000000 0.7500000000 0.5000000000  Biso 1.0 Al
Al2 1.0000000000 0.7500000000 0.2500000000 0.5000000000  Biso 1.0 Al
Al3 1.0000000000 0.6142102145 0.6142102145 0.0000000000  Biso 1.0 Al
Al4 1.0000000000 0.3857897855 0.3857897855 0.0000000000  Biso 1.0 Al
La5 1.0000000000 0.0000000000 0.0000000000 0.0000000000  Biso 1.0 La
