# AFLOW.org Repositories
# Al4Zr5   [HEX,HEX,hP18] (STD_PRIM doi:10
data_Al4Zr5
_pd_phase_name Al4Zr5
_cell_length_a  8.4627296511
_cell_length_b  8.4627296511
_cell_length_c  5.7972438119
_cell_angle_alpha  90.0000000000
_cell_angle_beta  90.0000000000
_cell_angle_gamma  120.0000000000
_symmetry_space_group_name_H-M  'P1'
_symmetry_Int_Tables_Number  1
loop_
_symmetry_equiv_pos_site_id
_symmetry_equiv_pos_as_xyz
  1  x,y,z
loop_
 _atom_site_label
 _atom_site_occupancy
 _atom_site_fract_x
 _atom_site_fract_y
 _atom_site_fract_z
 _atom_site_thermal_displace_type
 _atom_site_B_iso_or_equiv
 _atom_site_type_symbol
Al1 1.0000000000 0.0000000000 0.0000000000 0.0000000000  Biso 1.0 Al
Al2 1.0000000000 0.0000000000 0.0000000000 0.5000000000  Biso 1.0 Al
Al3 1.0000000000 0.6305202722 0.0000000000 0.2500000000  Biso 1.0 Al
Al4 1.0000000000 0.0000000000 0.6305202722 0.2500000000  Biso 1.0 Al
Al5 1.0000000000 0.3694764499 0.3694764499 0.2500000000  Biso 1.0 Al
Al6 1.0000000000 0.3694797278 0.0000000000 0.7500000000  Biso 1.0 Al
Al7 1.0000000000 0.0000000000 0.3694797278 0.7500000000  Biso 1.0 Al
Al8 1.0000000000 0.6305235501 0.6305235501 0.7500000000  Biso 1.0 Al
Zr9 1.0000000000 0.3333390724 0.6666609276 0.0000000000  Biso 1.0 Zr
Zr10 1.0000000000 0.6666609276 0.3333390724 0.5000000000  Biso 1.0 Zr
Zr11 1.0000000000 0.6666609276 0.3333390724 0.0000000000  Biso 1.0 Zr
Zr12 1.0000000000 0.3333390724 0.6666609276 0.5000000000  Biso 1.0 Zr
Zr13 1.0000000000 0.2907429706 0.0000000000 0.2500000000  Biso 1.0 Zr
Zr14 1.0000000000 0.0000000000 0.2907429706 0.2500000000  Biso 1.0 Zr
Zr15 1.0000000000 0.7092591843 0.7092591843 0.2500000000  Biso 1.0 Zr
Zr16 1.0000000000 0.7092570294 0.0000000000 0.7500000000  Biso 1.0 Zr
Zr17 1.0000000000 0.0000000000 0.7092570294 0.7500000000  Biso 1.0 Zr
Zr18 1.0000000000 0.2907408157 0.2907408157 0.7500000000  Biso 1.0 Zr
