# AFLOW.org Repositories
# Al5W1   [HEX,HEX,hP12] (STD_PRIM doi:10.
data_Al5W1
_pd_phase_name Al5W1
_cell_length_a  4.9153515840
_cell_length_b  4.9153515840
_cell_length_c  8.9064383222
_cell_angle_alpha  90.0000000000
_cell_angle_beta  90.0000000000
_cell_angle_gamma  120.0000000000
_symmetry_space_group_name_H-M  'P1'
_symmetry_Int_Tables_Number  1
loop_
_symmetry_equiv_pos_site_id
_symmetry_equiv_pos_as_xyz
  1  x,y,z
loop_
 _atom_site_label
 _atom_site_occupancy
 _atom_site_fract_x
 _atom_site_fract_y
 _atom_site_fract_z
 _atom_site_thermal_displace_type
 _atom_site_B_iso_or_equiv
 _atom_site_type_symbol
Al1 1.0000000000 0.0000000000 0.0000000000 0.0000000000  Biso 1.0 Al
Al2 1.0000000000 0.0000000000 0.0000000000 0.5000000000  Biso 1.0 Al
Al3 1.0000000000 0.3333377946 0.6666688973 0.0000000000  Biso 1.0 Al
Al4 1.0000000000 0.6666622054 0.3333311027 0.5000000000  Biso 1.0 Al
Al5 1.0000000000 0.0000000000 0.6621418822 0.2500000000  Biso 1.0 Al
Al6 1.0000000000 0.3378524281 0.3378524281 0.2499989275  Biso 1.0 Al
Al7 1.0000000000 0.6621437088 0.0000000000 0.2500010725  Biso 1.0 Al
Al8 1.0000000000 0.0000000000 0.3378581178 0.7500000000  Biso 1.0 Al
Al9 1.0000000000 0.6621475719 0.6621475719 0.7499989275  Biso 1.0 Al
Al10 1.0000000000 0.3378562912 0.0000000000 0.7500010725  Biso 1.0 Al
W11 1.0000000000 0.3333204893 0.6666602446 0.5000000000  Biso 1.0 W
W12 1.0000000000 0.6666795107 0.3333397554 0.0000000000  Biso 1.0 W
