# AFLOW.org Repositories
# As1Cu3   [BCC,BCC,cI64] (STD_PRIM doi:10
data_As1Cu3
_pd_phase_name As1Cu3
_cell_length_a  8.3497827483
_cell_length_b  8.3497827483
_cell_length_c  8.3497827483
_cell_angle_alpha  109.4712206345
_cell_angle_beta  109.4712206345
_cell_angle_gamma  109.4712206345
_symmetry_space_group_name_H-M  'P1'
_symmetry_Int_Tables_Number  1
loop_
_symmetry_equiv_pos_site_id
_symmetry_equiv_pos_as_xyz
  1  x,y,z
loop_
 _atom_site_label
 _atom_site_occupancy
 _atom_site_fract_x
 _atom_site_fract_y
 _atom_site_fract_z
 _atom_site_thermal_displace_type
 _atom_site_B_iso_or_equiv
 _atom_site_type_symbol
As1 1.0000000000 0.0597685420 0.0597685420 0.0597685420  Biso 1.0 As
As2 1.0000000000 0.4402314580 0.0000000000 0.5000000000  Biso 1.0 As
As3 1.0000000000 0.5000000000 0.4402314580 0.0000000000  Biso 1.0 As
As4 1.0000000000 0.0000000000 0.5000000000 0.4402314580  Biso 1.0 As
As5 1.0000000000 0.5597685420 0.5597685420 0.5597685420  Biso 1.0 As
As6 1.0000000000 0.9402314580 0.0000000000 0.5000000000  Biso 1.0 As
As7 1.0000000000 0.0000000000 0.5000000000 0.9402314580  Biso 1.0 As
As8 1.0000000000 0.5000000000 0.9402314580 0.0000000000  Biso 1.0 As
Cu9 1.0000000000 0.9093171934 0.8411677077 0.6926516127  Biso 1.0 Cu
Cu10 1.0000000000 0.5906828066 0.7833344193 0.4318505142  Biso 1.0 Cu
Cu11 1.0000000000 0.3514839050 0.6588322923 0.0681494858  Biso 1.0 Cu
Cu12 1.0000000000 0.1485160950 0.7166655807 0.8073483873  Biso 1.0 Cu
Cu13 1.0000000000 0.8411677077 0.6926516127 0.9093171934  Biso 1.0 Cu
Cu14 1.0000000000 0.7833344193 0.4318505142 0.5906828066  Biso 1.0 Cu
Cu15 1.0000000000 0.6588322923 0.0681494858 0.3514839050  Biso 1.0 Cu
Cu16 1.0000000000 0.7166655807 0.8073483873 0.1485160950  Biso 1.0 Cu
Cu17 1.0000000000 0.6926516127 0.9093171934 0.8411677077  Biso 1.0 Cu
Cu18 1.0000000000 0.4318505142 0.5906828066 0.7833344193  Biso 1.0 Cu
Cu19 1.0000000000 0.0681494858 0.3514839050 0.6588322923  Biso 1.0 Cu
Cu20 1.0000000000 0.8073483873 0.1485160950 0.7166655807  Biso 1.0 Cu
Cu21 1.0000000000 0.4093171934 0.1926516127 0.3411677077  Biso 1.0 Cu
Cu22 1.0000000000 0.0906828066 0.9318505142 0.2833344193  Biso 1.0 Cu
Cu23 1.0000000000 0.8514839050 0.5681494858 0.1588322923  Biso 1.0 Cu
Cu24 1.0000000000 0.6485160950 0.3073483873 0.2166655807  Biso 1.0 Cu
Cu25 1.0000000000 0.3411677077 0.4093171934 0.1926516127  Biso 1.0 Cu
Cu26 1.0000000000 0.2833344193 0.0906828066 0.9318505142  Biso 1.0 Cu
Cu27 1.0000000000 0.1588322923 0.8514839050 0.5681494858  Biso 1.0 Cu
Cu28 1.0000000000 0.2166655807 0.6485160950 0.3073483873  Biso 1.0 Cu
Cu29 1.0000000000 0.1926516127 0.3411677077 0.4093171934  Biso 1.0 Cu
Cu30 1.0000000000 0.9318505142 0.2833344193 0.0906828066  Biso 1.0 Cu
Cu31 1.0000000000 0.5681494858 0.1588322923 0.8514839050  Biso 1.0 Cu
Cu32 1.0000000000 0.3073483873 0.2166655807 0.6485160950  Biso 1.0 Cu
