# AFLOW.org Repositories
# As1Er1Pt1   [HEX,HEX,hP12] (STD_PRIM doi
data_As1Er1Pt1
_pd_phase_name As1Er1Pt1
_cell_length_a  4.2758292202
_cell_length_b  4.2758292202
_cell_length_c  15.0270467689
_cell_angle_alpha  90.0000000000
_cell_angle_beta  90.0000000000
_cell_angle_gamma  120.0000000000
_symmetry_space_group_name_H-M  'P1'
_symmetry_Int_Tables_Number  1
loop_
_symmetry_equiv_pos_site_id
_symmetry_equiv_pos_as_xyz
  1  x,y,z
loop_
 _atom_site_label
 _atom_site_occupancy
 _atom_site_fract_x
 _atom_site_fract_y
 _atom_site_fract_z
 _atom_site_thermal_displace_type
 _atom_site_B_iso_or_equiv
 _atom_site_type_symbol
As1 1.0000000000 0.6666755728 0.3333511457 0.6156760414  Biso 1.0 As
As2 1.0000000000 0.3333244272 0.6666488543 0.1156760414  Biso 1.0 As
As3 1.0000000000 0.3333244272 0.6666488543 0.3843239586  Biso 1.0 As
As4 1.0000000000 0.6666755728 0.3333511457 0.8843239586  Biso 1.0 As
Er5 1.0000000000 0.0000000000 0.0000000000 0.0000000000  Biso 1.0 Er
Er6 1.0000000000 0.0000000000 0.0000000000 0.5000000000  Biso 1.0 Er
Er7 1.0000000000 0.0000000000 0.0000000000 0.2500000000  Biso 1.0 Er
Er8 1.0000000000 0.0000000000 0.0000000000 0.7500000000  Biso 1.0 Er
Pt9 1.0000000000 0.6666489745 0.3332979489 0.1360544516  Biso 1.0 Pt
Pt10 1.0000000000 0.3333510255 0.6667020511 0.6360544516  Biso 1.0 Pt
Pt11 1.0000000000 0.3333510255 0.6667020511 0.8639455484  Biso 1.0 Pt
Pt12 1.0000000000 0.6666489745 0.3332979489 0.3639455484  Biso 1.0 Pt
