# AFLOW.org Repositories
# As2Cd1Si1   [BCT,BCT2,tI16] (STD_PRIM do
data_As2Cd1Si1
_pd_phase_name As2Cd1Si1
_cell_length_a  6.9677998261
_cell_length_b  6.9677998261
_cell_length_c  6.9677998261
_cell_angle_alpha  129.1167640255
_cell_angle_beta  129.1167640255
_cell_angle_gamma  74.8227679573
_symmetry_space_group_name_H-M  'P1'
_symmetry_Int_Tables_Number  1
loop_
_symmetry_equiv_pos_site_id
_symmetry_equiv_pos_as_xyz
  1  x,y,z
loop_
 _atom_site_label
 _atom_site_occupancy
 _atom_site_fract_x
 _atom_site_fract_y
 _atom_site_fract_z
 _atom_site_thermal_displace_type
 _atom_site_B_iso_or_equiv
 _atom_site_type_symbol
As1 1.0000000000 0.4151851938 0.8750000000 0.0401851938  Biso 1.0 As
As2 1.0000000000 0.8348148062 0.3750000000 0.9598148062  Biso 1.0 As
As3 1.0000000000 0.1250000000 0.1651851938 0.5401851938  Biso 1.0 As
As4 1.0000000000 0.6250000000 0.5848148062 0.4598148062  Biso 1.0 As
Cd5 1.0000000000 0.0000000000 0.0000000000 0.0000000000  Biso 1.0 Cd
Cd6 1.0000000000 0.2500000000 0.7500000000 0.5000000000  Biso 1.0 Cd
Si7 1.0000000000 0.5000000000 0.5000000000 0.0000000000  Biso 1.0 Si
Si8 1.0000000000 0.7500000000 0.2500000000 0.5000000000  Biso 1.0 Si
