# AFLOW.org Repositories
# As2Ho2Ni1   [HEX,HEX,hP10] (STD_PRIM doi
data_As2Ho2Ni1
_pd_phase_name As2Ho2Ni1
_cell_length_a  4.0955106454
_cell_length_b  4.0955106454
_cell_length_c  14.1252535494
_cell_angle_alpha  90.0000000000
_cell_angle_beta  90.0000000000
_cell_angle_gamma  120.0000000000
_symmetry_space_group_name_H-M  'P1'
_symmetry_Int_Tables_Number  1
loop_
_symmetry_equiv_pos_site_id
_symmetry_equiv_pos_as_xyz
  1  x,y,z
loop_
 _atom_site_label
 _atom_site_occupancy
 _atom_site_fract_x
 _atom_site_fract_y
 _atom_site_fract_z
 _atom_site_thermal_displace_type
 _atom_site_B_iso_or_equiv
 _atom_site_type_symbol
As1 1.0000000000 0.0000000000 0.0000000000 0.0000000000  Biso 1.0 As
As2 1.0000000000 0.0000000000 0.0000000000 0.5000000000  Biso 1.0 As
As3 1.0000000000 0.3333414988 0.6666707494 0.2500000000  Biso 1.0 As
As4 1.0000000000 0.6666585012 0.3333292506 0.7500000000  Biso 1.0 As
Ho5 1.0000000000 0.6666517959 0.3333258979 0.1176056494  Biso 1.0 Ho
Ho6 1.0000000000 0.3333482041 0.6666741021 0.6176056494  Biso 1.0 Ho
Ho7 1.0000000000 0.3333482041 0.6666741021 0.8823943506  Biso 1.0 Ho
Ho8 1.0000000000 0.6666517959 0.3333258979 0.3823943506  Biso 1.0 Ho
Ni9 1.0000000000 0.0000000000 0.0000000000 0.2500000000  Biso 1.0 Ni
Ni10 1.0000000000 0.0000000000 0.0000000000 0.7500000000  Biso 1.0 Ni
