# AFLOW.org Repositories
# As6Ru7U4   [BCC,BCC,cI34] (STD_PRIM doi:
data_As6Ru7U4
_pd_phase_name As6Ru7U4
_cell_length_a  7.3015835780
_cell_length_b  7.3015835780
_cell_length_c  7.3015835780
_cell_angle_alpha  109.4712206345
_cell_angle_beta  109.4712206345
_cell_angle_gamma  109.4712206345
_symmetry_space_group_name_H-M  'P1'
_symmetry_Int_Tables_Number  1
loop_
_symmetry_equiv_pos_site_id
_symmetry_equiv_pos_as_xyz
  1  x,y,z
loop_
 _atom_site_label
 _atom_site_occupancy
 _atom_site_fract_x
 _atom_site_fract_y
 _atom_site_fract_z
 _atom_site_thermal_displace_type
 _atom_site_B_iso_or_equiv
 _atom_site_type_symbol
As1 1.0000000000 0.3172051565 0.3172051565 0.0000000000  Biso 1.0 As
As2 1.0000000000 0.6827948435 0.6827948435 0.0000000000  Biso 1.0 As
As3 1.0000000000 0.3172051565 0.0000000000 0.3172051565  Biso 1.0 As
As4 1.0000000000 0.6827948435 0.0000000000 0.6827948435  Biso 1.0 As
As5 1.0000000000 0.0000000000 0.6827948435 0.6827948435  Biso 1.0 As
As6 1.0000000000 0.0000000000 0.3172051565 0.3172051565  Biso 1.0 As
Ru7 1.0000000000 0.2500000000 0.7500000000 0.5000000000  Biso 1.0 Ru
Ru8 1.0000000000 0.7500000000 0.2500000000 0.5000000000  Biso 1.0 Ru
Ru9 1.0000000000 0.7500000000 0.5000000000 0.2500000000  Biso 1.0 Ru
Ru10 1.0000000000 0.2500000000 0.5000000000 0.7500000000  Biso 1.0 Ru
Ru11 1.0000000000 0.5000000000 0.7500000000 0.2500000000  Biso 1.0 Ru
Ru12 1.0000000000 0.5000000000 0.2500000000 0.7500000000  Biso 1.0 Ru
Ru13 1.0000000000 0.0000000000 0.0000000000 0.0000000000  Biso 1.0 Ru
U14 1.0000000000 0.5000000000 0.0000000000 0.0000000000  Biso 1.0 U
U15 1.0000000000 0.5000000000 0.5000000000 0.5000000000  Biso 1.0 U
U16 1.0000000000 0.0000000000 0.0000000000 0.5000000000  Biso 1.0 U
U17 1.0000000000 0.0000000000 0.5000000000 0.0000000000  Biso 1.0 U
