# AFLOW.org Repositories
# As7Ho2Ni12   [HEX,HEX,hP21] (STD_PRIM do
data_As7Ho2Ni12
_pd_phase_name As7Ho2Ni12
_cell_length_a  9.2918146286
_cell_length_b  9.2918146286
_cell_length_c  3.8020679872
_cell_angle_alpha  90.0000000000
_cell_angle_beta  90.0000000000
_cell_angle_gamma  120.0000000000
_symmetry_space_group_name_H-M  'P1'
_symmetry_Int_Tables_Number  1
loop_
_symmetry_equiv_pos_site_id
_symmetry_equiv_pos_as_xyz
  1  x,y,z
loop_
 _atom_site_label
 _atom_site_occupancy
 _atom_site_fract_x
 _atom_site_fract_y
 _atom_site_fract_z
 _atom_site_thermal_displace_type
 _atom_site_B_iso_or_equiv
 _atom_site_type_symbol
As1 1.0000000000 0.2876171900 0.8843222410 0.0000000000  Biso 1.0 As
As2 1.0000000000 0.1156467624 0.4033144244 0.0000000000  Biso 1.0 As
As3 1.0000000000 0.5967252743 0.7124109350 0.0000000000  Biso 1.0 As
As4 1.0000000000 0.4056321938 0.2979401154 0.5000000000  Biso 1.0 As
As5 1.0000000000 0.7020359736 0.1076695553 0.5000000000  Biso 1.0 As
As6 1.0000000000 0.8922711007 0.5943489381 0.5000000000  Biso 1.0 As
As7 1.0000000000 0.0000000000 0.0000000000 0.0000000000  Biso 1.0 As
Ho8 1.0000000000 0.6666568279 0.3333389063 0.0000000000  Biso 1.0 Ho
Ho9 1.0000000000 0.3333304289 0.6666896604 0.5000000000  Biso 1.0 Ho
Ni10 1.0000000000 0.0576011200 0.6194327255 0.0000000000  Biso 1.0 Ni
Ni11 1.0000000000 0.3805649360 0.4381285273 0.0000000000  Biso 1.0 Ni
Ni12 1.0000000000 0.5618488340 0.9424296242 0.0000000000  Biso 1.0 Ni
Ni13 1.0000000000 0.2803821696 0.1300806090 0.0000000000  Biso 1.0 Ni
Ni14 1.0000000000 0.8699356823 0.1503029724 0.0000000000  Biso 1.0 Ni
Ni15 1.0000000000 0.8497111298 0.7196402690 0.0000000000  Biso 1.0 Ni
Ni16 1.0000000000 0.4262516508 0.0500489094 0.5000000000  Biso 1.0 Ni
Ni17 1.0000000000 0.9498431299 0.3760809721 0.5000000000  Biso 1.0 Ni
Ni18 1.0000000000 0.6238806445 0.5738058844 0.5000000000  Biso 1.0 Ni
Ni19 1.0000000000 0.0981306705 0.8859823703 0.5000000000  Biso 1.0 Ni
Ni20 1.0000000000 0.1140874260 0.2121686099 0.5000000000  Biso 1.0 Ni
Ni21 1.0000000000 0.7878436280 0.9018801613 0.5000000000  Biso 1.0 Ni
