# AFLOW.org Repositories
# Au1Ba1   [ORC,ORC,oP8] (STD_PRIM doi:10.
data_Au1Ba1
_pd_phase_name Au1Ba1
_cell_length_a  5.0337819548
_cell_length_b  6.4955766669
_cell_length_c  8.3935303177
_cell_angle_alpha  90.0000000000
_cell_angle_beta  90.0000000000
_cell_angle_gamma  90.0000000000
_symmetry_space_group_name_H-M  'P1'
_symmetry_Int_Tables_Number  1
loop_
_symmetry_equiv_pos_site_id
_symmetry_equiv_pos_as_xyz
  1  x,y,z
loop_
 _atom_site_label
 _atom_site_occupancy
 _atom_site_fract_x
 _atom_site_fract_y
 _atom_site_fract_z
 _atom_site_thermal_displace_type
 _atom_site_B_iso_or_equiv
 _atom_site_type_symbol
Au1 1.0000000000 0.7500000000 0.3610644189 0.0402006017  Biso 1.0 Au
Au2 1.0000000000 0.2500000000 0.8610644189 0.4597993983  Biso 1.0 Au
Au3 1.0000000000 0.2500000000 0.6389355811 0.9597993983  Biso 1.0 Au
Au4 1.0000000000 0.7500000000 0.1389355811 0.5402006017  Biso 1.0 Au
Ba5 1.0000000000 0.7500000000 0.8600654892 0.1835080665  Biso 1.0 Ba
Ba6 1.0000000000 0.2500000000 0.3600654892 0.3164919335  Biso 1.0 Ba
Ba7 1.0000000000 0.2500000000 0.1399345108 0.8164919335  Biso 1.0 Ba
Ba8 1.0000000000 0.7500000000 0.6399345108 0.6835080665  Biso 1.0 Ba
