# AFLOW.org Repositories
# Au1Er2   [ORC,ORC,oP12] (STD_PRIM doi:10
data_Au1Er2
_pd_phase_name Au1Er2
_cell_length_a  4.9279075148
_cell_length_b  7.0188738602
_cell_length_c  8.8475462985
_cell_angle_alpha  90.0000000000
_cell_angle_beta  90.0000000000
_cell_angle_gamma  90.0000000000
_symmetry_space_group_name_H-M  'P1'
_symmetry_Int_Tables_Number  1
loop_
_symmetry_equiv_pos_site_id
_symmetry_equiv_pos_as_xyz
  1  x,y,z
loop_
 _atom_site_label
 _atom_site_occupancy
 _atom_site_fract_x
 _atom_site_fract_y
 _atom_site_fract_z
 _atom_site_thermal_displace_type
 _atom_site_B_iso_or_equiv
 _atom_site_type_symbol
Au1 1.0000000000 0.2500000000 0.2599739593 0.8986167070  Biso 1.0 Au
Au2 1.0000000000 0.7500000000 0.2400260407 0.3986167070  Biso 1.0 Au
Au3 1.0000000000 0.7500000000 0.7400260407 0.1013832930  Biso 1.0 Au
Au4 1.0000000000 0.2500000000 0.7599739593 0.6013832930  Biso 1.0 Au
Er5 1.0000000000 0.2500000000 0.8523438760 0.9208541264  Biso 1.0 Er
Er6 1.0000000000 0.7500000000 0.6476561240 0.4208541264  Biso 1.0 Er
Er7 1.0000000000 0.7500000000 0.1476561240 0.0791458736  Biso 1.0 Er
Er8 1.0000000000 0.2500000000 0.3523438760 0.5791458736  Biso 1.0 Er
Er9 1.0000000000 0.2500000000 0.4839054784 0.1774420412  Biso 1.0 Er
Er10 1.0000000000 0.7500000000 0.0160945216 0.6774420412  Biso 1.0 Er
Er11 1.0000000000 0.7500000000 0.5160945216 0.8225579588  Biso 1.0 Er
Er12 1.0000000000 0.2500000000 0.9839054784 0.3225579588  Biso 1.0 Er
