# AFLOW.org Repositories
# Au1In1O2   [HEX,HEX,hP8] (STD_PRIM doi:1
data_Au1In1O2
_pd_phase_name Au1In1O2
_cell_length_a  3.3456150857
_cell_length_b  3.3456150857
_cell_length_c  12.5375943620
_cell_angle_alpha  90.0000000000
_cell_angle_beta  90.0000000000
_cell_angle_gamma  120.0000000000
_symmetry_space_group_name_H-M  'P1'
_symmetry_Int_Tables_Number  1
loop_
_symmetry_equiv_pos_site_id
_symmetry_equiv_pos_as_xyz
  1  x,y,z
loop_
 _atom_site_label
 _atom_site_occupancy
 _atom_site_fract_x
 _atom_site_fract_y
 _atom_site_fract_z
 _atom_site_thermal_displace_type
 _atom_site_B_iso_or_equiv
 _atom_site_type_symbol
Au1 1.0000000000 0.6667002291 0.3334004583 0.2500000000  Biso 1.0 Au
Au2 1.0000000000 0.3332997709 0.6665995417 0.7500000000  Biso 1.0 Au
In3 1.0000000000 0.0000000000 0.0000000000 0.0000000000  Biso 1.0 In
In4 1.0000000000 0.0000000000 0.0000000000 0.5000000000  Biso 1.0 In
O5 1.0000000000 0.6666850668 0.3333701337 0.0839817565  Biso 1.0 O
O6 1.0000000000 0.3333149332 0.6666298663 0.5839817565  Biso 1.0 O
O7 1.0000000000 0.3333149332 0.6666298663 0.9160182435  Biso 1.0 O
O8 1.0000000000 0.6666850668 0.3333701337 0.4160182435  Biso 1.0 O
