# AFLOW.org Repositories
# Au1K1Se2   [TET,TET,tP8] (STD_PRIM doi:1
data_Au1K1Se2
_pd_phase_name Au1K1Se2
_cell_length_a  7.8737368108
_cell_length_b  7.8737368108
_cell_length_c  3.7418892829
_cell_angle_alpha  90.0000000000
_cell_angle_beta  90.0000000000
_cell_angle_gamma  90.0000000000
_symmetry_space_group_name_H-M  'P1'
_symmetry_Int_Tables_Number  1
loop_
_symmetry_equiv_pos_site_id
_symmetry_equiv_pos_as_xyz
  1  x,y,z
loop_
 _atom_site_label
 _atom_site_occupancy
 _atom_site_fract_x
 _atom_site_fract_y
 _atom_site_fract_z
 _atom_site_thermal_displace_type
 _atom_site_B_iso_or_equiv
 _atom_site_type_symbol
Au1 1.0000000000 0.5000000000 0.0000000000 0.0000000000  Biso 1.0 Au
Au2 1.0000000000 0.0000000000 0.5000000000 0.0000000000  Biso 1.0 Au
K3 1.0000000000 0.0000000000 0.0000000000 0.0000000000  Biso 1.0 K
K4 1.0000000000 0.5000000000 0.5000000000 0.0000000000  Biso 1.0 K
Se5 1.0000000000 0.3489440799 0.1509543775 0.5000000000  Biso 1.0 Se
Se6 1.0000000000 0.6510559201 0.8490456225 0.5000000000  Biso 1.0 Se
Se7 1.0000000000 0.8490456225 0.3489440799 0.5000000000  Biso 1.0 Se
Se8 1.0000000000 0.1509543775 0.6510559201 0.5000000000  Biso 1.0 Se
