# AFLOW.org Repositories
# Au1Pb4Rb3   [ORC,ORC,oP16] (STD_PRIM doi
data_Au1Pb4Rb3
_pd_phase_name Au1Pb4Rb3
_cell_length_a  7.0278212038
_cell_length_b  7.2215828150
_cell_length_c  13.5129044598
_cell_angle_alpha  90.0000000000
_cell_angle_beta  90.0000000000
_cell_angle_gamma  90.0000000000
_symmetry_space_group_name_H-M  'P1'
_symmetry_Int_Tables_Number  1
loop_
_symmetry_equiv_pos_site_id
_symmetry_equiv_pos_as_xyz
  1  x,y,z
loop_
 _atom_site_label
 _atom_site_occupancy
 _atom_site_fract_x
 _atom_site_fract_y
 _atom_site_fract_z
 _atom_site_thermal_displace_type
 _atom_site_B_iso_or_equiv
 _atom_site_type_symbol
Au1 1.0000000000 0.7096893781 0.2500000000 0.2500000000  Biso 1.0 Au
Au2 1.0000000000 0.2903106219 0.7500000000 0.7500000000  Biso 1.0 Au
Pb3 1.0000000000 0.9393164569 0.5183139184 0.7500000000  Biso 1.0 Pb
Pb4 1.0000000000 0.9393164569 0.9816860816 0.7500000000  Biso 1.0 Pb
Pb5 1.0000000000 0.0606835431 0.4816860816 0.2500000000  Biso 1.0 Pb
Pb6 1.0000000000 0.0606835431 0.0183139184 0.2500000000  Biso 1.0 Pb
Pb7 1.0000000000 0.3547384079 0.2500000000 0.3713551300  Biso 1.0 Pb
Pb8 1.0000000000 0.3547384079 0.2500000000 0.1286448700  Biso 1.0 Pb
Pb9 1.0000000000 0.6452615921 0.7500000000 0.8713551300  Biso 1.0 Pb
Pb10 1.0000000000 0.6452615921 0.7500000000 0.6286448700  Biso 1.0 Pb
Rb11 1.0000000000 0.1649958663 0.7500000000 0.0000000000  Biso 1.0 Rb
Rb12 1.0000000000 0.1649958663 0.7500000000 0.5009668835  Biso 1.0 Rb
Rb13 1.0000000000 0.8350041337 0.2500000000 0.4990331165  Biso 1.0 Rb
Rb14 1.0000000000 0.8350041337 0.2500000000 0.0000000000  Biso 1.0 Rb
Rb15 1.0000000000 0.4273195179 0.2500000000 0.7500000000  Biso 1.0 Rb
Rb16 1.0000000000 0.5726804821 0.7500000000 0.2500000000  Biso 1.0 Rb
