# AFLOW.org Repositories
# Au1Sn1Tb1   [HEX,HEX,hP6] (STD_PRIM doi:
data_Au1Sn1Tb1
_pd_phase_name Au1Sn1Tb1
_cell_length_a  4.7329544592
_cell_length_b  4.7329544592
_cell_length_c  7.4842438530
_cell_angle_alpha  90.0000000000
_cell_angle_beta  90.0000000000
_cell_angle_gamma  120.0000000000
_symmetry_space_group_name_H-M  'P1'
_symmetry_Int_Tables_Number  1
loop_
_symmetry_equiv_pos_site_id
_symmetry_equiv_pos_as_xyz
  1  x,y,z
loop_
 _atom_site_label
 _atom_site_occupancy
 _atom_site_fract_x
 _atom_site_fract_y
 _atom_site_fract_z
 _atom_site_thermal_displace_type
 _atom_site_B_iso_or_equiv
 _atom_site_type_symbol
Au1 1.0000000000 0.6666722754 0.3333445509 0.0705678333  Biso 1.0 Au
Au2 1.0000000000 0.3333277246 0.6666554491 0.5705678333  Biso 1.0 Au
Sn3 1.0000000000 0.6666668280 0.3333336559 0.4700579947  Biso 1.0 Sn
Sn4 1.0000000000 0.3333331720 0.6666663441 0.9700579947  Biso 1.0 Sn
Tb5 1.0000000000 0.0000000000 0.0000000000 0.7436741720  Biso 1.0 Tb
Tb6 1.0000000000 0.0000000000 0.0000000000 0.2436741720  Biso 1.0 Tb
