# AFLOW.org Repositories
# Au1Th1   [ORCC,ORCC,oS8] (STD_PRIM doi:1
data_Au1Th1
_pd_phase_name Au1Th1
_cell_length_a  6.3264349435
_cell_length_b  6.3264349435
_cell_length_c  4.6850318848
_cell_angle_alpha  90.0000000000
_cell_angle_beta  90.0000000000
_cell_angle_gamma  144.0882842317
_symmetry_space_group_name_H-M  'P1'
_symmetry_Int_Tables_Number  1
loop_
_symmetry_equiv_pos_site_id
_symmetry_equiv_pos_as_xyz
  1  x,y,z
loop_
 _atom_site_label
 _atom_site_occupancy
 _atom_site_fract_x
 _atom_site_fract_y
 _atom_site_fract_z
 _atom_site_thermal_displace_type
 _atom_site_B_iso_or_equiv
 _atom_site_type_symbol
Au1 1.0000000000 0.5733723436 0.4266276564 0.7500000000  Biso 1.0 Au
Au2 1.0000000000 0.4266276564 0.5733723436 0.2500000000  Biso 1.0 Au
Th3 1.0000000000 0.8485957921 0.1514042079 0.7500000000  Biso 1.0 Th
Th4 1.0000000000 0.1514042079 0.8485957921 0.2500000000  Biso 1.0 Th
