# AFLOW.org Repositories
# Au2Bi1Dy5   [BCT,BCT2,tI32] (STD_PRIM do
data_Au2Bi1Dy5
_pd_phase_name Au2Bi1Dy5
_cell_length_a  8.7223066400
_cell_length_b  8.7223066400
_cell_length_c  8.7223066400
_cell_angle_alpha  124.4460889296
_cell_angle_beta  124.4460889296
_cell_angle_gamma  82.4575280685
_symmetry_space_group_name_H-M  'P1'
_symmetry_Int_Tables_Number  1
loop_
_symmetry_equiv_pos_site_id
_symmetry_equiv_pos_as_xyz
  1  x,y,z
loop_
 _atom_site_label
 _atom_site_occupancy
 _atom_site_fract_x
 _atom_site_fract_y
 _atom_site_fract_z
 _atom_site_thermal_displace_type
 _atom_site_B_iso_or_equiv
 _atom_site_type_symbol
Au1 1.0000000000 0.8611493629 0.3611493629 0.2222987258  Biso 1.0 Au
Au2 1.0000000000 0.1388506371 0.6388506371 0.7777012742  Biso 1.0 Au
Au3 1.0000000000 0.3611493629 0.1388506371 0.5000000000  Biso 1.0 Au
Au4 1.0000000000 0.6388506371 0.8611493629 0.5000000000  Biso 1.0 Au
Bi5 1.0000000000 0.2500000000 0.2500000000 0.0000000000  Biso 1.0 Bi
Bi6 1.0000000000 0.7500000000 0.7500000000 0.0000000000  Biso 1.0 Bi
Dy7 1.0000000000 0.0000000000 0.0000000000 0.0000000000  Biso 1.0 Dy
Dy8 1.0000000000 0.5000000000 0.5000000000 0.0000000000  Biso 1.0 Dy
Dy9 1.0000000000 0.4904733687 0.9904733687 0.1949869375  Biso 1.0 Dy
Dy10 1.0000000000 0.7954864312 0.2954864312 0.8050130625  Biso 1.0 Dy
Dy11 1.0000000000 0.9904733687 0.7954864312 0.5000000000  Biso 1.0 Dy
Dy12 1.0000000000 0.2954864312 0.4904733687 0.5000000000  Biso 1.0 Dy
Dy13 1.0000000000 0.7045135688 0.5095266313 0.5000000000  Biso 1.0 Dy
Dy14 1.0000000000 0.0095266313 0.2045135688 0.5000000000  Biso 1.0 Dy
Dy15 1.0000000000 0.2045135688 0.7045135688 0.1949869375  Biso 1.0 Dy
Dy16 1.0000000000 0.5095266313 0.0095266313 0.8050130625  Biso 1.0 Dy
