# AFLOW.org Repositories
# Au3K2   [ORCI,ORCI,oI10] (STD_PRIM doi:1
data_Au3K2
_pd_phase_name Au3K2
_cell_length_a  6.2733386430
_cell_length_b  6.2733386430
_cell_length_c  6.2733386430
_cell_angle_alpha  132.9263818582
_cell_angle_beta  127.1459934592
_cell_angle_gamma  73.4467617894
_symmetry_space_group_name_H-M  'P1'
_symmetry_Int_Tables_Number  1
loop_
_symmetry_equiv_pos_site_id
_symmetry_equiv_pos_as_xyz
  1  x,y,z
loop_
 _atom_site_label
 _atom_site_occupancy
 _atom_site_fract_x
 _atom_site_fract_y
 _atom_site_fract_z
 _atom_site_thermal_displace_type
 _atom_site_B_iso_or_equiv
 _atom_site_type_symbol
Au1 1.0000000000 0.0000000000 0.0000000000 0.0000000000  Biso 1.0 Au
Au2 1.0000000000 0.2545524838 0.5000000000 0.7545524838  Biso 1.0 Au
Au3 1.0000000000 0.7454475162 0.5000000000 0.2454475162  Biso 1.0 Au
K4 1.0000000000 0.3051238040 0.8051238040 0.5000000000  Biso 1.0 K
K5 1.0000000000 0.6948761960 0.1948761960 0.5000000000  Biso 1.0 K
