# AFLOW.org Repositories
# Au4Cr1   [BCT,BCT1,tI10] (STD_PRIM doi:1
data_Au4Cr1
_pd_phase_name Au4Cr1
_cell_length_a  5.0753755751
_cell_length_b  5.0753755751
_cell_length_c  5.0753755751
_cell_angle_alpha  99.5482554151
_cell_angle_beta  99.5482554151
_cell_angle_gamma  131.9316473782
_symmetry_space_group_name_H-M  'P1'
_symmetry_Int_Tables_Number  1
loop_
_symmetry_equiv_pos_site_id
_symmetry_equiv_pos_as_xyz
  1  x,y,z
loop_
 _atom_site_label
 _atom_site_occupancy
 _atom_site_fract_x
 _atom_site_fract_y
 _atom_site_fract_z
 _atom_site_thermal_displace_type
 _atom_site_B_iso_or_equiv
 _atom_site_type_symbol
Au1 1.0000000000 0.3981981154 0.7980753125 0.1962734279  Biso 1.0 Au
Au2 1.0000000000 0.6018018846 0.2019246875 0.8037265721  Biso 1.0 Au
Au3 1.0000000000 0.2019246875 0.3981981154 0.6001228028  Biso 1.0 Au
Au4 1.0000000000 0.7980753125 0.6018018846 0.3998771972  Biso 1.0 Au
Cr5 1.0000000000 0.0000000000 0.0000000000 0.0000000000  Biso 1.0 Cr
