# AFLOW.org Repositories
# Au4Ho1   [BCT,BCT1,tI10] (STD_PRIM doi:1
data_Au4Ho1
_pd_phase_name Au4Ho1
_cell_length_a  5.2129981872
_cell_length_b  5.2129981872
_cell_length_c  5.2129981872
_cell_angle_alpha  99.4240838045
_cell_angle_beta  99.4240838045
_cell_angle_gamma  132.2617589174
_symmetry_space_group_name_H-M  'P1'
_symmetry_Int_Tables_Number  1
loop_
_symmetry_equiv_pos_site_id
_symmetry_equiv_pos_as_xyz
  1  x,y,z
loop_
 _atom_site_label
 _atom_site_occupancy
 _atom_site_fract_x
 _atom_site_fract_y
 _atom_site_fract_z
 _atom_site_thermal_displace_type
 _atom_site_B_iso_or_equiv
 _atom_site_type_symbol
Au1 1.0000000000 0.5989398252 0.1994275456 0.7983673707  Biso 1.0 Au
Au2 1.0000000000 0.4010601748 0.8005724544 0.2016326293  Biso 1.0 Au
Au3 1.0000000000 0.8005724544 0.5989398252 0.3995122796  Biso 1.0 Au
Au4 1.0000000000 0.1994275456 0.4010601748 0.6004877204  Biso 1.0 Au
Ho5 1.0000000000 0.0000000000 0.0000000000 0.0000000000  Biso 1.0 Ho
