# AFLOW.org Repositories
# Au4In2K1   [BCT,BCT1,tI28] (STD_PRIM doi
data_Au4In2K1
_pd_phase_name Au4In2K1
_cell_length_a  7.5544427378
_cell_length_b  7.5544427378
_cell_length_c  7.5544427378
_cell_angle_alpha  108.5329777861
_cell_angle_beta  108.5329777861
_cell_angle_gamma  111.3644567839
_symmetry_space_group_name_H-M  'P1'
_symmetry_Int_Tables_Number  1
loop_
_symmetry_equiv_pos_site_id
_symmetry_equiv_pos_as_xyz
  1  x,y,z
loop_
 _atom_site_label
 _atom_site_occupancy
 _atom_site_fract_x
 _atom_site_fract_y
 _atom_site_fract_z
 _atom_site_thermal_displace_type
 _atom_site_B_iso_or_equiv
 _atom_site_type_symbol
Au1 1.0000000000 0.4854444985 0.6844015280 0.5000000000  Biso 1.0 Au
Au2 1.0000000000 0.1844015280 0.9854444985 0.5000000000  Biso 1.0 Au
Au3 1.0000000000 0.6844015280 0.1844015280 0.1989570295  Biso 1.0 Au
Au4 1.0000000000 0.9854444985 0.4854444985 0.8010429705  Biso 1.0 Au
Au5 1.0000000000 0.0145555015 0.5145555015 0.1989570295  Biso 1.0 Au
Au6 1.0000000000 0.3155984720 0.8155984720 0.8010429705  Biso 1.0 Au
Au7 1.0000000000 0.8155984720 0.0145555015 0.5000000000  Biso 1.0 Au
Au8 1.0000000000 0.5145555015 0.3155984720 0.5000000000  Biso 1.0 Au
In9 1.0000000000 0.1457210797 0.3542789203 0.5000000000  Biso 1.0 In
In10 1.0000000000 0.8542789203 0.6457210797 0.5000000000  Biso 1.0 In
In11 1.0000000000 0.3542789203 0.8542789203 0.2085578406  Biso 1.0 In
In12 1.0000000000 0.6457210797 0.1457210797 0.7914421594  Biso 1.0 In
K13 1.0000000000 0.2500000000 0.2500000000 0.0000000000  Biso 1.0 K
K14 1.0000000000 0.7500000000 0.7500000000 0.0000000000  Biso 1.0 K
