# AFLOW.org Repositories
# B12Yb1   [FCC,FCC,cF52] (STD_PRIM doi:10
data_B12Yb1
_pd_phase_name B12Yb1
_cell_length_a  5.3031257582
_cell_length_b  5.3031257582
_cell_length_c  5.3031257582
_cell_angle_alpha  60.0000000000
_cell_angle_beta  60.0000000000
_cell_angle_gamma  60.0000000000
_symmetry_space_group_name_H-M  'P1'
_symmetry_Int_Tables_Number  1
loop_
_symmetry_equiv_pos_site_id
_symmetry_equiv_pos_as_xyz
  1  x,y,z
loop_
 _atom_site_label
 _atom_site_occupancy
 _atom_site_fract_x
 _atom_site_fract_y
 _atom_site_fract_z
 _atom_site_thermal_displace_type
 _atom_site_B_iso_or_equiv
 _atom_site_type_symbol
B1 1.0000000000 0.5000000000 0.5000000000 0.1632687591  Biso 1.0 B
B2 1.0000000000 0.8367312409 0.1632687591 0.5000000000  Biso 1.0 B
B3 1.0000000000 0.1632687591 0.8367312409 0.5000000000  Biso 1.0 B
B4 1.0000000000 0.5000000000 0.5000000000 0.8367312409  Biso 1.0 B
B5 1.0000000000 0.5000000000 0.1632687591 0.5000000000  Biso 1.0 B
B6 1.0000000000 0.1632687591 0.5000000000 0.8367312409  Biso 1.0 B
B7 1.0000000000 0.8367312409 0.5000000000 0.1632687591  Biso 1.0 B
B8 1.0000000000 0.5000000000 0.8367312409 0.5000000000  Biso 1.0 B
B9 1.0000000000 0.1632687591 0.5000000000 0.5000000000  Biso 1.0 B
B10 1.0000000000 0.5000000000 0.8367312409 0.1632687591  Biso 1.0 B
B11 1.0000000000 0.5000000000 0.1632687591 0.8367312409  Biso 1.0 B
B12 1.0000000000 0.8367312409 0.5000000000 0.5000000000  Biso 1.0 B
Yb13 1.0000000000 0.0000000000 0.0000000000 0.0000000000  Biso 1.0 Yb
