# AFLOW.org Repositories
# B2C2Mg1   [ORCC,ORCC,oS80] (STD_PRIM doi
data_B2C2Mg1
_pd_phase_name B2C2Mg1
_cell_length_a  7.2267467286
_cell_length_b  7.2267467286
_cell_length_c  7.4638644647
_cell_angle_alpha  90.0000000000
_cell_angle_beta  90.0000000000
_cell_angle_gamma  98.1781614002
_symmetry_space_group_name_H-M  'P1'
_symmetry_Int_Tables_Number  1
loop_
_symmetry_equiv_pos_site_id
_symmetry_equiv_pos_as_xyz
  1  x,y,z
loop_
 _atom_site_label
 _atom_site_occupancy
 _atom_site_fract_x
 _atom_site_fract_y
 _atom_site_fract_z
 _atom_site_thermal_displace_type
 _atom_site_B_iso_or_equiv
 _atom_site_type_symbol
B1 1.0000000000 0.3441797664 0.8441797664 0.2500000000  Biso 1.0 B
B2 1.0000000000 0.1558202336 0.6558202336 0.7500000000  Biso 1.0 B
B3 1.0000000000 0.6558202336 0.1558202336 0.7500000000  Biso 1.0 B
B4 1.0000000000 0.8441797664 0.3441797664 0.2500000000  Biso 1.0 B
B5 1.0000000000 0.5885812684 0.5885812684 0.2756332342  Biso 1.0 B
B6 1.0000000000 0.9114187316 0.9114187316 0.7756332342  Biso 1.0 B
B7 1.0000000000 0.0885812684 0.0885812684 0.2243667658  Biso 1.0 B
B8 1.0000000000 0.4114187316 0.4114187316 0.7243667658  Biso 1.0 B
B9 1.0000000000 0.4686411238 0.2134237020 0.2444978438  Biso 1.0 B
B10 1.0000000000 0.0313588762 0.2865762980 0.7444978438  Biso 1.0 B
B11 1.0000000000 0.7134237020 0.9686411238 0.2555021562  Biso 1.0 B
B12 1.0000000000 0.7865762980 0.5313588762 0.7555021562  Biso 1.0 B
B13 1.0000000000 0.5313588762 0.7865762980 0.7555021562  Biso 1.0 B
B14 1.0000000000 0.9686411238 0.7134237020 0.2555021562  Biso 1.0 B
B15 1.0000000000 0.2865762980 0.0313588762 0.7444978438  Biso 1.0 B
B16 1.0000000000 0.2134237020 0.4686411238 0.2444978438  Biso 1.0 B
C17 1.0000000000 0.1769386871 0.6769386871 0.2500000000  Biso 1.0 C
C18 1.0000000000 0.3230613129 0.8230613129 0.7500000000  Biso 1.0 C
C19 1.0000000000 0.8230613129 0.3230613129 0.7500000000  Biso 1.0 C
C20 1.0000000000 0.6769386871 0.1769386871 0.2500000000  Biso 1.0 C
C21 1.0000000000 0.9209134045 0.9209134045 0.2314723325  Biso 1.0 C
C22 1.0000000000 0.5790865955 0.5790865955 0.7314723325  Biso 1.0 C
C23 1.0000000000 0.4209134045 0.4209134045 0.2685276675  Biso 1.0 C
C24 1.0000000000 0.0790865955 0.0790865955 0.7685276675  Biso 1.0 C
C25 1.0000000000 0.2994207904 0.0503004287 0.2241755951  Biso 1.0 C
C26 1.0000000000 0.2005792096 0.4496995713 0.7241755951  Biso 1.0 C
C27 1.0000000000 0.5503004287 0.7994207904 0.2758244049  Biso 1.0 C
C28 1.0000000000 0.9496995713 0.7005792096 0.7758244049  Biso 1.0 C
C29 1.0000000000 0.7005792096 0.9496995713 0.7758244049  Biso 1.0 C
C30 1.0000000000 0.7994207904 0.5503004287 0.2758244049  Biso 1.0 C
C31 1.0000000000 0.4496995713 0.2005792096 0.7241755951  Biso 1.0 C
C32 1.0000000000 0.0503004287 0.2994207904 0.2241755951  Biso 1.0 C
Mg33 1.0000000000 0.1526779892 0.8473220108 0.0000000000  Biso 1.0 Mg
Mg34 1.0000000000 0.3473220108 0.6526779892 0.5000000000  Biso 1.0 Mg
Mg35 1.0000000000 0.8473220108 0.1526779892 0.0000000000  Biso 1.0 Mg
Mg36 1.0000000000 0.6526779892 0.3473220108 0.5000000000  Biso 1.0 Mg
Mg37 1.0000000000 0.2778145509 0.2778145509 0.9888991382  Biso 1.0 Mg
Mg38 1.0000000000 0.2221854491 0.2221854491 0.4888991382  Biso 1.0 Mg
Mg39 1.0000000000 0.7778145509 0.7778145509 0.5111008618  Biso 1.0 Mg
Mg40 1.0000000000 0.7221854491 0.7221854491 0.0111008618  Biso 1.0 Mg
