# AFLOW.org Repositories
# B2Mg1Ni3   [HEX,HEX,hP18] (STD_PRIM doi:
data_B2Mg1Ni3
_pd_phase_name B2Mg1Ni3
_cell_length_a  4.8477943095
_cell_length_b  4.8477943095
_cell_length_c  8.7349305305
_cell_angle_alpha  90.0000000000
_cell_angle_beta  90.0000000000
_cell_angle_gamma  120.0000000000
_symmetry_space_group_name_H-M  'P1'
_symmetry_Int_Tables_Number  1
loop_
_symmetry_equiv_pos_site_id
_symmetry_equiv_pos_as_xyz
  1  x,y,z
loop_
 _atom_site_label
 _atom_site_occupancy
 _atom_site_fract_x
 _atom_site_fract_y
 _atom_site_fract_z
 _atom_site_thermal_displace_type
 _atom_site_B_iso_or_equiv
 _atom_site_type_symbol
B1 1.0000000000 0.2244432224 0.6122216112 0.0000000000  Biso 1.0 B
B2 1.0000000000 0.3877783888 0.6122216112 0.3333333333  Biso 1.0 B
B3 1.0000000000 0.3877783888 0.7755567776 0.6666666667  Biso 1.0 B
B4 1.0000000000 0.7755567776 0.3877783888 0.0000000000  Biso 1.0 B
B5 1.0000000000 0.6122216112 0.3877783888 0.3333333333  Biso 1.0 B
B6 1.0000000000 0.6122216112 0.2244432224 0.6666666667  Biso 1.0 B
Mg7 1.0000000000 0.0000000000 0.0000000000 0.0000000000  Biso 1.0 Mg
Mg8 1.0000000000 0.0000000000 0.0000000000 0.3333333333  Biso 1.0 Mg
Mg9 1.0000000000 0.0000000000 0.0000000000 0.6666666667  Biso 1.0 Mg
Ni10 1.0000000000 0.0000000000 0.5000000000 0.5000000000  Biso 1.0 Ni
Ni11 1.0000000000 0.5000000000 0.5000000000 0.8333333333  Biso 1.0 Ni
Ni12 1.0000000000 0.5000000000 0.0000000000 0.1666666667  Biso 1.0 Ni
Ni13 1.0000000000 0.0000000000 0.5000000000 0.2086289738  Biso 1.0 Ni
Ni14 1.0000000000 0.5000000000 0.5000000000 0.5419623071  Biso 1.0 Ni
Ni15 1.0000000000 0.5000000000 0.0000000000 0.8752956404  Biso 1.0 Ni
Ni16 1.0000000000 0.5000000000 0.5000000000 0.1247043596  Biso 1.0 Ni
Ni17 1.0000000000 0.0000000000 0.5000000000 0.7913710262  Biso 1.0 Ni
Ni18 1.0000000000 0.5000000000 0.0000000000 0.4580376929  Biso 1.0 Ni
