# AFLOW.org Repositories
# B2Os1Tb1   [ORC,ORC,oP16] (STD_PRIM doi:
data_B2Os1Tb1
_pd_phase_name B2Os1Tb1
_cell_length_a  5.3327516352
_cell_length_b  5.9224326706
_cell_length_c  6.3906139653
_cell_angle_alpha  90.0000000000
_cell_angle_beta  90.0000000000
_cell_angle_gamma  90.0000000000
_symmetry_space_group_name_H-M  'P1'
_symmetry_Int_Tables_Number  1
loop_
_symmetry_equiv_pos_site_id
_symmetry_equiv_pos_as_xyz
  1  x,y,z
loop_
 _atom_site_label
 _atom_site_occupancy
 _atom_site_fract_x
 _atom_site_fract_y
 _atom_site_fract_z
 _atom_site_thermal_displace_type
 _atom_site_B_iso_or_equiv
 _atom_site_type_symbol
B1 1.0000000000 0.0827954804 0.3648143724 0.5403732279  Biso 1.0 B
B2 1.0000000000 0.9172045196 0.1351856276 0.0403732279  Biso 1.0 B
B3 1.0000000000 0.5827954804 0.6351856276 0.4596267721  Biso 1.0 B
B4 1.0000000000 0.4172045196 0.8648143724 0.9596267721  Biso 1.0 B
B5 1.0000000000 0.9172045196 0.6351856276 0.4596267721  Biso 1.0 B
B6 1.0000000000 0.0827954804 0.8648143724 0.9596267721  Biso 1.0 B
B7 1.0000000000 0.4172045196 0.3648143724 0.5403732279  Biso 1.0 B
B8 1.0000000000 0.5827954804 0.1351856276 0.0403732279  Biso 1.0 B
Os9 1.0000000000 0.2500000000 0.1775218819 0.8182677988  Biso 1.0 Os
Os10 1.0000000000 0.7500000000 0.3224781181 0.3182677988  Biso 1.0 Os
Os11 1.0000000000 0.7500000000 0.8224781181 0.1817322012  Biso 1.0 Os
Os12 1.0000000000 0.2500000000 0.6775218819 0.6817322012  Biso 1.0 Os
Tb13 1.0000000000 0.2500000000 0.0098315694 0.3362047900  Biso 1.0 Tb
Tb14 1.0000000000 0.7500000000 0.4901684306 0.8362047900  Biso 1.0 Tb
Tb15 1.0000000000 0.7500000000 0.9901684306 0.6637952100  Biso 1.0 Tb
Tb16 1.0000000000 0.2500000000 0.5098315694 0.1637952100  Biso 1.0 Tb
