# AFLOW.org Repositories
# B3Ni1W3   [ORCC,ORCC,oS28] (STD_PRIM doi
data_B3Ni1W3
_pd_phase_name B3Ni1W3
_cell_length_a  4.5336675338
_cell_length_b  4.5336675338
_cell_length_c  10.8122145004
_cell_angle_alpha  90.0000000000
_cell_angle_beta  90.0000000000
_cell_angle_gamma  138.4675600994
_symmetry_space_group_name_H-M  'P1'
_symmetry_Int_Tables_Number  1
loop_
_symmetry_equiv_pos_site_id
_symmetry_equiv_pos_as_xyz
  1  x,y,z
loop_
 _atom_site_label
 _atom_site_occupancy
 _atom_site_fract_x
 _atom_site_fract_y
 _atom_site_fract_z
 _atom_site_thermal_displace_type
 _atom_site_B_iso_or_equiv
 _atom_site_type_symbol
B1 1.0000000000 0.0885815564 0.9114184436 0.8960660137  Biso 1.0 B
B2 1.0000000000 0.9114184436 0.0885815564 0.3960660137  Biso 1.0 B
B3 1.0000000000 0.0885815564 0.9114184436 0.6039339863  Biso 1.0 B
B4 1.0000000000 0.9114184436 0.0885815564 0.1039339863  Biso 1.0 B
B5 1.0000000000 0.2085841969 0.7914158031 0.7500000000  Biso 1.0 B
B6 1.0000000000 0.7914158031 0.2085841969 0.2500000000  Biso 1.0 B
Ni7 1.0000000000 0.5000000000 0.5000000000 0.0000000000  Biso 1.0 Ni
Ni8 1.0000000000 0.5000000000 0.5000000000 0.5000000000  Biso 1.0 Ni
W9 1.0000000000 0.7885343418 0.2114656582 0.8921586813  Biso 1.0 W
W10 1.0000000000 0.2114656582 0.7885343418 0.3921586813  Biso 1.0 W
W11 1.0000000000 0.7885343418 0.2114656582 0.6078413187  Biso 1.0 W
W12 1.0000000000 0.2114656582 0.7885343418 0.1078413187  Biso 1.0 W
W13 1.0000000000 0.5023094750 0.4976905250 0.7500000000  Biso 1.0 W
W14 1.0000000000 0.4976905250 0.5023094750 0.2500000000  Biso 1.0 W
