# AFLOW.org Repositories
# B3Ru2   [HEX,HEX,hP10] (STD_PRIM doi:10.
data_B3Ru2
_pd_phase_name B3Ru2
_cell_length_a  2.9112523560
_cell_length_b  2.9112523560
_cell_length_c  12.8370366954
_cell_angle_alpha  90.0000000000
_cell_angle_beta  90.0000000000
_cell_angle_gamma  120.0000000000
_symmetry_space_group_name_H-M  'P1'
_symmetry_Int_Tables_Number  1
loop_
_symmetry_equiv_pos_site_id
_symmetry_equiv_pos_as_xyz
  1  x,y,z
loop_
 _atom_site_label
 _atom_site_occupancy
 _atom_site_fract_x
 _atom_site_fract_y
 _atom_site_fract_z
 _atom_site_thermal_displace_type
 _atom_site_B_iso_or_equiv
 _atom_site_type_symbol
B1 1.0000000000 0.3333344764 0.6666655236 0.9691005465  Biso 1.0 B
B2 1.0000000000 0.6666655236 0.3333344764 0.4691005465  Biso 1.0 B
B3 1.0000000000 0.6666655236 0.3333344764 0.0308994535  Biso 1.0 B
B4 1.0000000000 0.3333344764 0.6666655236 0.5308994535  Biso 1.0 B
B5 1.0000000000 0.3333324580 0.6666675420 0.7500000000  Biso 1.0 B
B6 1.0000000000 0.6666675420 0.3333324580 0.2500000000  Biso 1.0 B
Ru7 1.0000000000 0.3333334867 0.6666665133 0.1400161877  Biso 1.0 Ru
Ru8 1.0000000000 0.6666665133 0.3333334867 0.6400161877  Biso 1.0 Ru
Ru9 1.0000000000 0.6666665133 0.3333334867 0.8599838123  Biso 1.0 Ru
Ru10 1.0000000000 0.3333334867 0.6666665133 0.3599838123  Biso 1.0 Ru
