# AFLOW.org Repositories
# B4Cr1   [ORCI,ORCI,oI10] (STD_PRIM doi:1
data_B4Cr1
_pd_phase_name B4Cr1
_cell_length_a  3.9094728041
_cell_length_b  3.9094728041
_cell_length_c  3.9094728041
_cell_angle_alpha  137.1405840654
_cell_angle_beta  105.0142174134
_cell_angle_gamma  90.4535804970
_symmetry_space_group_name_H-M  'P1'
_symmetry_Int_Tables_Number  1
loop_
_symmetry_equiv_pos_site_id
_symmetry_equiv_pos_as_xyz
  1  x,y,z
loop_
 _atom_site_label
 _atom_site_occupancy
 _atom_site_fract_x
 _atom_site_fract_y
 _atom_site_fract_z
 _atom_site_thermal_displace_type
 _atom_site_B_iso_or_equiv
 _atom_site_type_symbol
B1 1.0000000000 0.4615780736 0.6569498618 0.8046282118  Biso 1.0 B
B2 1.0000000000 0.5384219264 0.3430501382 0.1953717882  Biso 1.0 B
B3 1.0000000000 0.8523216500 0.6569498618 0.1953717882  Biso 1.0 B
B4 1.0000000000 0.1476783500 0.3430501382 0.8046282118  Biso 1.0 B
Cr5 1.0000000000 0.0000000000 0.0000000000 0.0000000000  Biso 1.0 Cr
