# AFLOW.org Repositories
# B4Er1Rh4   [TET,TET,tP18] (STD_PRIM doi:
data_B4Er1Rh4
_pd_phase_name B4Er1Rh4
_cell_length_a  5.3108983288
_cell_length_b  5.3108983288
_cell_length_c  7.4214362243
_cell_angle_alpha  90.0000000000
_cell_angle_beta  90.0000000000
_cell_angle_gamma  90.0000000000
_symmetry_space_group_name_H-M  'P1'
_symmetry_Int_Tables_Number  1
loop_
_symmetry_equiv_pos_site_id
_symmetry_equiv_pos_as_xyz
  1  x,y,z
loop_
 _atom_site_label
 _atom_site_occupancy
 _atom_site_fract_x
 _atom_site_fract_y
 _atom_site_fract_z
 _atom_site_thermal_displace_type
 _atom_site_B_iso_or_equiv
 _atom_site_type_symbol
B1 1.0000000000 0.2500000000 0.0802612022 0.1020184786  Biso 1.0 B
B2 1.0000000000 0.2500000000 0.4197387978 0.1020184786  Biso 1.0 B
B3 1.0000000000 0.4197387978 0.2500000000 0.6020184786  Biso 1.0 B
B4 1.0000000000 0.0802612022 0.2500000000 0.6020184786  Biso 1.0 B
B5 1.0000000000 0.7500000000 0.5802612022 0.8979815214  Biso 1.0 B
B6 1.0000000000 0.7500000000 0.9197387978 0.8979815214  Biso 1.0 B
B7 1.0000000000 0.5802612022 0.7500000000 0.3979815214  Biso 1.0 B
B8 1.0000000000 0.9197387978 0.7500000000 0.3979815214  Biso 1.0 B
Er9 1.0000000000 0.7500000000 0.2500000000 0.2500000000  Biso 1.0 Er
Er10 1.0000000000 0.2500000000 0.7500000000 0.7500000000  Biso 1.0 Er
Rh11 1.0000000000 0.2500000000 0.9989387987 0.3971462082  Biso 1.0 Rh
Rh12 1.0000000000 0.2500000000 0.5010612013 0.3971462082  Biso 1.0 Rh
Rh13 1.0000000000 0.5010612013 0.2500000000 0.8971462082  Biso 1.0 Rh
Rh14 1.0000000000 0.9989387987 0.2500000000 0.8971462082  Biso 1.0 Rh
Rh15 1.0000000000 0.7500000000 0.4989387987 0.6028537918  Biso 1.0 Rh
Rh16 1.0000000000 0.7500000000 0.0010612013 0.6028537918  Biso 1.0 Rh
Rh17 1.0000000000 0.4989387987 0.7500000000 0.1028537918  Biso 1.0 Rh
Rh18 1.0000000000 0.0010612013 0.7500000000 0.1028537918  Biso 1.0 Rh
