# AFLOW.org Repositories
# B4Ta3   [ORCI,ORCI,oI14] (STD_PRIM doi:1
data_B4Ta3
_pd_phase_name B4Ta3
_cell_length_a  7.4293756538
_cell_length_b  7.4293756538
_cell_length_c  7.4293756538
_cell_angle_alpha  155.4440962429
_cell_angle_beta  154.0771014626
_cell_angle_gamma  36.0075672174
_symmetry_space_group_name_H-M  'P1'
_symmetry_Int_Tables_Number  1
loop_
_symmetry_equiv_pos_site_id
_symmetry_equiv_pos_as_xyz
  1  x,y,z
loop_
 _atom_site_label
 _atom_site_occupancy
 _atom_site_fract_x
 _atom_site_fract_y
 _atom_site_fract_z
 _atom_site_thermal_displace_type
 _atom_site_B_iso_or_equiv
 _atom_site_type_symbol
B1 1.0000000000 0.3671884369 0.3671884369 0.0000000000  Biso 1.0 B
B2 1.0000000000 0.6328115631 0.6328115631 0.0000000000  Biso 1.0 B
B3 1.0000000000 0.4358147928 0.9358147928 0.5000000000  Biso 1.0 B
B4 1.0000000000 0.5641852072 0.0641852072 0.5000000000  Biso 1.0 B
Ta5 1.0000000000 0.0000000000 0.5000000000 0.5000000000  Biso 1.0 Ta
Ta6 1.0000000000 0.1851766188 0.1851766188 0.0000000000  Biso 1.0 Ta
Ta7 1.0000000000 0.8148233812 0.8148233812 0.0000000000  Biso 1.0 Ta
