# AFLOW.org Repositories
# Ba1Br1H1   [TET,TET,tP6] (STD_PRIM doi:1
data_Ba1Br1H1
_pd_phase_name Ba1Br1H1
_cell_length_a  4.5675308883
_cell_length_b  4.5675308883
_cell_length_c  7.4684245353
_cell_angle_alpha  90.0000000000
_cell_angle_beta  90.0000000000
_cell_angle_gamma  90.0000000000
_symmetry_space_group_name_H-M  'P1'
_symmetry_Int_Tables_Number  1
loop_
_symmetry_equiv_pos_site_id
_symmetry_equiv_pos_as_xyz
  1  x,y,z
loop_
 _atom_site_label
 _atom_site_occupancy
 _atom_site_fract_x
 _atom_site_fract_y
 _atom_site_fract_z
 _atom_site_thermal_displace_type
 _atom_site_B_iso_or_equiv
 _atom_site_type_symbol
Ba1 1.0000000000 0.2500000000 0.2500000000 0.1942235774  Biso 1.0 Ba
Ba2 1.0000000000 0.7500000000 0.7500000000 0.8057764226  Biso 1.0 Ba
Br3 1.0000000000 0.2500000000 0.2500000000 0.6558053790  Biso 1.0 Br
Br4 1.0000000000 0.7500000000 0.7500000000 0.3441946210  Biso 1.0 Br
H5 1.0000000000 0.7500000000 0.2500000000 0.0000000000  Biso 1.0 H
H6 1.0000000000 0.2500000000 0.7500000000 0.0000000000  Biso 1.0 H
