# AFLOW.org Repositories
# Ba1Be13   [FCC,FCC,cF112] (STD_PRIM doi:
data_Ba1Be13
_pd_phase_name Ba1Be13
_cell_length_a  7.5036110444
_cell_length_b  7.5036110444
_cell_length_c  7.5036110444
_cell_angle_alpha  60.0000000000
_cell_angle_beta  60.0000000000
_cell_angle_gamma  60.0000000000
_symmetry_space_group_name_H-M  'P1'
_symmetry_Int_Tables_Number  1
loop_
_symmetry_equiv_pos_site_id
_symmetry_equiv_pos_as_xyz
  1  x,y,z
loop_
 _atom_site_label
 _atom_site_occupancy
 _atom_site_fract_x
 _atom_site_fract_y
 _atom_site_fract_z
 _atom_site_thermal_displace_type
 _atom_site_B_iso_or_equiv
 _atom_site_type_symbol
Ba1 1.0000000000 0.7500000000 0.7500000000 0.7500000000  Biso 1.0 Ba
Ba2 1.0000000000 0.2500000000 0.2500000000 0.2500000000  Biso 1.0 Ba
Be3 1.0000000000 0.0000000000 0.0000000000 0.0000000000  Biso 1.0 Be
Be4 1.0000000000 0.5000000000 0.5000000000 0.5000000000  Biso 1.0 Be
Be5 1.0000000000 0.2817640026 0.9333999204 0.7182359974  Biso 1.0 Be
Be6 1.0000000000 0.9333999204 0.2817640026 0.0666000796  Biso 1.0 Be
Be7 1.0000000000 0.0666000796 0.7182359974 0.9333999204  Biso 1.0 Be
Be8 1.0000000000 0.7182359974 0.0666000796 0.2817640026  Biso 1.0 Be
Be9 1.0000000000 0.2817640026 0.0666000796 0.9333999204  Biso 1.0 Be
Be10 1.0000000000 0.9333999204 0.7182359974 0.2817640026  Biso 1.0 Be
Be11 1.0000000000 0.0666000796 0.2817640026 0.7182359974  Biso 1.0 Be
Be12 1.0000000000 0.7182359974 0.9333999204 0.0666000796  Biso 1.0 Be
Be13 1.0000000000 0.2817640026 0.7182359974 0.0666000796  Biso 1.0 Be
Be14 1.0000000000 0.9333999204 0.0666000796 0.7182359974  Biso 1.0 Be
Be15 1.0000000000 0.0666000796 0.9333999204 0.2817640026  Biso 1.0 Be
Be16 1.0000000000 0.7182359974 0.2817640026 0.9333999204  Biso 1.0 Be
Be17 1.0000000000 0.5666000796 0.2182359974 0.7817640026  Biso 1.0 Be
Be18 1.0000000000 0.2182359974 0.5666000796 0.4333999204  Biso 1.0 Be
Be19 1.0000000000 0.7817640026 0.4333999204 0.5666000796  Biso 1.0 Be
Be20 1.0000000000 0.4333999204 0.7817640026 0.2182359974  Biso 1.0 Be
Be21 1.0000000000 0.4333999204 0.2182359974 0.5666000796  Biso 1.0 Be
Be22 1.0000000000 0.7817640026 0.5666000796 0.2182359974  Biso 1.0 Be
Be23 1.0000000000 0.2182359974 0.4333999204 0.7817640026  Biso 1.0 Be
Be24 1.0000000000 0.5666000796 0.7817640026 0.4333999204  Biso 1.0 Be
Be25 1.0000000000 0.7817640026 0.2182359974 0.4333999204  Biso 1.0 Be
Be26 1.0000000000 0.4333999204 0.5666000796 0.7817640026  Biso 1.0 Be
Be27 1.0000000000 0.5666000796 0.4333999204 0.2182359974  Biso 1.0 Be
Be28 1.0000000000 0.2182359974 0.7817640026 0.5666000796  Biso 1.0 Be
