# AFLOW.org Repositories
# Ba1Bi1O3   [FCC,FCC,cF40] (STD_PRIM doi:
data_Ba1Bi1O3
_pd_phase_name Ba1Bi1O3
_cell_length_a  6.2509736936
_cell_length_b  6.2509736936
_cell_length_c  6.2509736936
_cell_angle_alpha  60.0000000000
_cell_angle_beta  60.0000000000
_cell_angle_gamma  60.0000000000
_symmetry_space_group_name_H-M  'P1'
_symmetry_Int_Tables_Number  1
loop_
_symmetry_equiv_pos_site_id
_symmetry_equiv_pos_as_xyz
  1  x,y,z
loop_
 _atom_site_label
 _atom_site_occupancy
 _atom_site_fract_x
 _atom_site_fract_y
 _atom_site_fract_z
 _atom_site_thermal_displace_type
 _atom_site_B_iso_or_equiv
 _atom_site_type_symbol
Ba1 1.0000000000 0.7500000000 0.7500000000 0.7500000000  Biso 1.0 Ba
Ba2 1.0000000000 0.2500000000 0.2500000000 0.2500000000  Biso 1.0 Ba
Bi3 1.0000000000 0.0000000000 0.0000000000 0.0000000000  Biso 1.0 Bi
Bi4 1.0000000000 0.5000000000 0.5000000000 0.5000000000  Biso 1.0 Bi
O5 1.0000000000 0.2538957436 0.7461042564 0.2538957436  Biso 1.0 O
O6 1.0000000000 0.7461042564 0.2538957436 0.7461042564  Biso 1.0 O
O7 1.0000000000 0.2538957436 0.7461042564 0.7461042564  Biso 1.0 O
O8 1.0000000000 0.7461042564 0.2538957436 0.2538957436  Biso 1.0 O
O9 1.0000000000 0.2538957436 0.2538957436 0.7461042564  Biso 1.0 O
O10 1.0000000000 0.7461042564 0.7461042564 0.2538957436  Biso 1.0 O
