# AFLOW.org Repositories
# Ba1Ca1Sn1   [ORC,ORC,oP12] (STD_PRIM doi
data_Ba1Ca1Sn1
_pd_phase_name Ba1Ca1Sn1
_cell_length_a  5.3430816442
_cell_length_b  8.9160698914
_cell_length_c  9.7763839750
_cell_angle_alpha  90.0000000000
_cell_angle_beta  90.0000000000
_cell_angle_gamma  90.0000000000
_symmetry_space_group_name_H-M  'P1'
_symmetry_Int_Tables_Number  1
loop_
_symmetry_equiv_pos_site_id
_symmetry_equiv_pos_as_xyz
  1  x,y,z
loop_
 _atom_site_label
 _atom_site_occupancy
 _atom_site_fract_x
 _atom_site_fract_y
 _atom_site_fract_z
 _atom_site_thermal_displace_type
 _atom_site_B_iso_or_equiv
 _atom_site_type_symbol
Ba1 1.0000000000 0.2500000000 0.5210871984 0.3182569063  Biso 1.0 Ba
Ba2 1.0000000000 0.7500000000 0.9789128016 0.8182569063  Biso 1.0 Ba
Ba3 1.0000000000 0.7500000000 0.4789128016 0.6817430937  Biso 1.0 Ba
Ba4 1.0000000000 0.2500000000 0.0210871984 0.1817430937  Biso 1.0 Ba
Ca5 1.0000000000 0.2500000000 0.6445194949 0.9287858860  Biso 1.0 Ca
Ca6 1.0000000000 0.7500000000 0.8554805051 0.4287858860  Biso 1.0 Ca
Ca7 1.0000000000 0.7500000000 0.3554805051 0.0712141140  Biso 1.0 Ca
Ca8 1.0000000000 0.2500000000 0.1445194949 0.5712141140  Biso 1.0 Ca
Sn9 1.0000000000 0.2500000000 0.2749205686 0.8917646821  Biso 1.0 Sn
Sn10 1.0000000000 0.7500000000 0.2250794314 0.3917646821  Biso 1.0 Sn
Sn11 1.0000000000 0.7500000000 0.7250794314 0.1082353179  Biso 1.0 Sn
Sn12 1.0000000000 0.2500000000 0.7749205686 0.6082353179  Biso 1.0 Sn
