# AFLOW.org Repositories
# Ba1Cd2   [ORCI,ORCI,oI12] (STD_PRIM doi:
data_Ba1Cd2
_pd_phase_name Ba1Cd2
_cell_length_a  6.6164639074
_cell_length_b  6.6164639074
_cell_length_c  6.6164639074
_cell_angle_alpha  132.6612714175
_cell_angle_beta  100.7789398837
_cell_angle_gamma  97.7769508512
_symmetry_space_group_name_H-M  'P1'
_symmetry_Int_Tables_Number  1
loop_
_symmetry_equiv_pos_site_id
_symmetry_equiv_pos_as_xyz
  1  x,y,z
loop_
 _atom_site_label
 _atom_site_occupancy
 _atom_site_fract_x
 _atom_site_fract_y
 _atom_site_fract_z
 _atom_site_thermal_displace_type
 _atom_site_B_iso_or_equiv
 _atom_site_type_symbol
Ba1 1.0000000000 0.8010743173 0.5510743173 0.2500000000  Biso 1.0 Ba
Ba2 1.0000000000 0.1989256827 0.4489256827 0.7500000000  Biso 1.0 Ba
Cd3 1.0000000000 0.2282280448 0.1637625307 0.0644655141  Biso 1.0 Cd
Cd4 1.0000000000 0.5992970166 0.1637625307 0.4355344859  Biso 1.0 Cd
Cd5 1.0000000000 0.4007029834 0.8362374693 0.5644655141  Biso 1.0 Cd
Cd6 1.0000000000 0.7717719552 0.8362374693 0.9355344859  Biso 1.0 Cd
