# AFLOW.org Repositories
# Ba1F4Pd1   [BCT,BCT2,tI24] (STD_PRIM doi
data_Ba1F4Pd1
_pd_phase_name Ba1F4Pd1
_cell_length_a  7.1406339341
_cell_length_b  7.1406339341
_cell_length_c  7.1406339341
_cell_angle_alpha  128.2011839208
_cell_angle_beta  128.2011839208
_cell_angle_gamma  76.2993441413
_symmetry_space_group_name_H-M  'P1'
_symmetry_Int_Tables_Number  1
loop_
_symmetry_equiv_pos_site_id
_symmetry_equiv_pos_as_xyz
  1  x,y,z
loop_
 _atom_site_label
 _atom_site_occupancy
 _atom_site_fract_x
 _atom_site_fract_y
 _atom_site_fract_z
 _atom_site_thermal_displace_type
 _atom_site_B_iso_or_equiv
 _atom_site_type_symbol
Ba1 1.0000000000 0.2500000000 0.2500000000 0.0000000000  Biso 1.0 Ba
Ba2 1.0000000000 0.7500000000 0.7500000000 0.0000000000  Biso 1.0 Ba
F3 1.0000000000 0.2894876367 0.4641242865 0.5000000000  Biso 1.0 F
F4 1.0000000000 0.9641242865 0.7894876367 0.5000000000  Biso 1.0 F
F5 1.0000000000 0.4641242865 0.9641242865 0.1746366498  Biso 1.0 F
F6 1.0000000000 0.7894876367 0.2894876367 0.8253633502  Biso 1.0 F
F7 1.0000000000 0.2105123633 0.7105123633 0.1746366498  Biso 1.0 F
F8 1.0000000000 0.5358757135 0.0358757135 0.8253633502  Biso 1.0 F
F9 1.0000000000 0.0358757135 0.2105123633 0.5000000000  Biso 1.0 F
F10 1.0000000000 0.7105123633 0.5358757135 0.5000000000  Biso 1.0 F
Pd11 1.0000000000 0.0000000000 0.5000000000 0.5000000000  Biso 1.0 Pd
Pd12 1.0000000000 0.5000000000 0.0000000000 0.5000000000  Biso 1.0 Pd
