# AFLOW.org Repositories
# Ba1O3Ti1   [HEX,HEX,hP30] (STD_PRIM doi:
data_Ba1O3Ti1
_pd_phase_name Ba1O3Ti1
_cell_length_a  5.8207250781
_cell_length_b  5.8207250781
_cell_length_c  14.2056366359
_cell_angle_alpha  90.0000000000
_cell_angle_beta  90.0000000000
_cell_angle_gamma  120.0000000000
_symmetry_space_group_name_H-M  'P1'
_symmetry_Int_Tables_Number  1
loop_
_symmetry_equiv_pos_site_id
_symmetry_equiv_pos_as_xyz
  1  x,y,z
loop_
 _atom_site_label
 _atom_site_occupancy
 _atom_site_fract_x
 _atom_site_fract_y
 _atom_site_fract_z
 _atom_site_thermal_displace_type
 _atom_site_B_iso_or_equiv
 _atom_site_type_symbol
Ba1 1.0000000000 0.0000000000 0.0000000000 0.2500000000  Biso 1.0 Ba
Ba2 1.0000000000 0.0000000000 0.0000000000 0.7500000000  Biso 1.0 Ba
Ba3 1.0000000000 0.3333430612 0.6666715306 0.0976075478  Biso 1.0 Ba
Ba4 1.0000000000 0.6666569388 0.3333284694 0.5976075478  Biso 1.0 Ba
Ba5 1.0000000000 0.6666569388 0.3333284694 0.9023924522  Biso 1.0 Ba
Ba6 1.0000000000 0.3333430612 0.6666715306 0.4023924522  Biso 1.0 Ba
O7 1.0000000000 0.5175949829 0.4823953703 0.2500000000  Biso 1.0 O
O8 1.0000000000 0.5175949829 0.0351996126 0.2500000000  Biso 1.0 O
O9 1.0000000000 0.9647941380 0.4823970690 0.2500000000  Biso 1.0 O
O10 1.0000000000 0.4824050171 0.5176046297 0.7500000000  Biso 1.0 O
O11 1.0000000000 0.4824050171 0.9648003874 0.7500000000  Biso 1.0 O
O12 1.0000000000 0.0352058620 0.5176029310 0.7500000000  Biso 1.0 O
O13 1.0000000000 0.8349348579 0.1650616854 0.0806390665  Biso 1.0 O
O14 1.0000000000 0.8349348579 0.6698731725 0.0806390665  Biso 1.0 O
O15 1.0000000000 0.3301249179 0.1650624589 0.0806386994  Biso 1.0 O
O16 1.0000000000 0.1650651421 0.8349383146 0.5806390665  Biso 1.0 O
O17 1.0000000000 0.1650651421 0.3301268275 0.5806390665  Biso 1.0 O
O18 1.0000000000 0.6698750821 0.8349375411 0.5806386994  Biso 1.0 O
O19 1.0000000000 0.1650651421 0.3301268275 0.9193609335  Biso 1.0 O
O20 1.0000000000 0.1650651421 0.8349383146 0.9193609335  Biso 1.0 O
O21 1.0000000000 0.6698750821 0.8349375411 0.9193613006  Biso 1.0 O
O22 1.0000000000 0.8349348579 0.6698731725 0.4193609335  Biso 1.0 O
O23 1.0000000000 0.8349348579 0.1650616854 0.4193609335  Biso 1.0 O
O24 1.0000000000 0.3301249179 0.1650624589 0.4193613006  Biso 1.0 O
Ti25 1.0000000000 0.0000000000 0.0000000000 0.0000000000  Biso 1.0 Ti
Ti26 1.0000000000 0.0000000000 0.0000000000 0.5000000000  Biso 1.0 Ti
Ti27 1.0000000000 0.3333330515 0.6666665257 0.8464631359  Biso 1.0 Ti
Ti28 1.0000000000 0.6666669485 0.3333334743 0.3464631359  Biso 1.0 Ti
Ti29 1.0000000000 0.6666669485 0.3333334743 0.1535368641  Biso 1.0 Ti
Ti30 1.0000000000 0.3333330515 0.6666665257 0.6535368641  Biso 1.0 Ti
