# AFLOW.org Repositories
# Ba1O3Ru1   [HEX,HEX,hP20] (STD_PRIM doi:
data_Ba1O3Ru1
_pd_phase_name Ba1O3Ru1
_cell_length_a  5.8356061311
_cell_length_b  5.8356061311
_cell_length_c  9.7863454361
_cell_angle_alpha  90.0000000000
_cell_angle_beta  90.0000000000
_cell_angle_gamma  120.0000000000
_symmetry_space_group_name_H-M  'P1'
_symmetry_Int_Tables_Number  1
loop_
_symmetry_equiv_pos_site_id
_symmetry_equiv_pos_as_xyz
  1  x,y,z
loop_
 _atom_site_label
 _atom_site_occupancy
 _atom_site_fract_x
 _atom_site_fract_y
 _atom_site_fract_z
 _atom_site_thermal_displace_type
 _atom_site_B_iso_or_equiv
 _atom_site_type_symbol
Ba1 1.0000000000 0.0000000000 0.0000000000 0.0000000000  Biso 1.0 Ba
Ba2 1.0000000000 0.0000000000 0.0000000000 0.5000000000  Biso 1.0 Ba
Ba3 1.0000000000 0.3333492970 0.6666746485 0.2500000000  Biso 1.0 Ba
Ba4 1.0000000000 0.6666507030 0.3333253515 0.7500000000  Biso 1.0 Ba
O5 1.0000000000 0.0000000000 0.5000000000 0.0000000000  Biso 1.0 O
O6 1.0000000000 0.5000000000 0.5000000000 0.0000000000  Biso 1.0 O
O7 1.0000000000 0.5000000000 0.0000000000 0.0000000000  Biso 1.0 O
O8 1.0000000000 0.0000000000 0.5000000000 0.5000000000  Biso 1.0 O
O9 1.0000000000 0.5000000000 0.5000000000 0.5000000000  Biso 1.0 O
O10 1.0000000000 0.5000000000 0.0000000000 0.5000000000  Biso 1.0 O
O11 1.0000000000 0.8178273954 0.6356571618 0.2500000000  Biso 1.0 O
O12 1.0000000000 0.3643371867 0.1821685934 0.2500000000  Biso 1.0 O
O13 1.0000000000 0.8178273954 0.1821702336 0.2500000000  Biso 1.0 O
O14 1.0000000000 0.1821726046 0.3643428382 0.7500000000  Biso 1.0 O
O15 1.0000000000 0.6356628133 0.8178314066 0.7500000000  Biso 1.0 O
O16 1.0000000000 0.1821726046 0.8178297664 0.7500000000  Biso 1.0 O
Ru17 1.0000000000 0.6666651960 0.3333325980 0.1125472281  Biso 1.0 Ru
Ru18 1.0000000000 0.3333348040 0.6666674020 0.6125472281  Biso 1.0 Ru
Ru19 1.0000000000 0.3333348040 0.6666674020 0.8874527719  Biso 1.0 Ru
Ru20 1.0000000000 0.6666651960 0.3333325980 0.3874527719  Biso 1.0 Ru
