# AFLOW.org Repositories
# Ba1Tl2   [HEX,HEX,hP6] (STD_PRIM doi:10.
data_Ba1Tl2
_pd_phase_name Ba1Tl2
_cell_length_a  5.3593214503
_cell_length_b  5.3593214503
_cell_length_c  8.6236176126
_cell_angle_alpha  90.0000000000
_cell_angle_beta  90.0000000000
_cell_angle_gamma  120.0000000000
_symmetry_space_group_name_H-M  'P1'
_symmetry_Int_Tables_Number  1
loop_
_symmetry_equiv_pos_site_id
_symmetry_equiv_pos_as_xyz
  1  x,y,z
loop_
 _atom_site_label
 _atom_site_occupancy
 _atom_site_fract_x
 _atom_site_fract_y
 _atom_site_fract_z
 _atom_site_thermal_displace_type
 _atom_site_B_iso_or_equiv
 _atom_site_type_symbol
Ba1 1.0000000000 0.0000000000 0.0000000000 0.2500000000  Biso 1.0 Ba
Ba2 1.0000000000 0.0000000000 0.0000000000 0.7500000000  Biso 1.0 Ba
Tl3 1.0000000000 0.3333337049 0.6666662951 0.4542396753  Biso 1.0 Tl
Tl4 1.0000000000 0.6666662951 0.3333337049 0.9542396753  Biso 1.0 Tl
Tl5 1.0000000000 0.6666662951 0.3333337049 0.5457603247  Biso 1.0 Tl
Tl6 1.0000000000 0.3333337049 0.6666662951 0.0457603247  Biso 1.0 Tl
