# AFLOW.org Repositories
# Ba2Ge4S10   [FCC,FCC,cF128] (STD_PRIM do
data_Ba2Ge4S10
_pd_phase_name Ba2Ge4S10
_cell_length_a  10.7561812188
_cell_length_b  10.7561812188
_cell_length_c  10.7561812188
_cell_angle_alpha  60.0000000000
_cell_angle_beta  60.0000000000
_cell_angle_gamma  60.0000000000
_symmetry_space_group_name_H-M  'P1'
_symmetry_Int_Tables_Number  1
loop_
_symmetry_equiv_pos_site_id
_symmetry_equiv_pos_as_xyz
  1  x,y,z
loop_
 _atom_site_label
 _atom_site_occupancy
 _atom_site_fract_x
 _atom_site_fract_y
 _atom_site_fract_z
 _atom_site_thermal_displace_type
 _atom_site_B_iso_or_equiv
 _atom_site_type_symbol
Ba1 1.0000000000 0.5000000000 0.5000000000 0.5000000000  Biso 1.0 Ba
Ba2 1.0000000000 0.0000000000 0.5000000000 0.5000000000  Biso 1.0 Ba
Ba3 1.0000000000 0.0000000000 0.5000000000 0.0000000000  Biso 1.0 Ba
Ba4 1.0000000000 0.0000000000 0.0000000000 0.5000000000  Biso 1.0 Ba
Ge5 1.0000000000 0.6241823455 0.7919392182 0.7919392182  Biso 1.0 Ge
Ge6 1.0000000000 0.2919392182 0.7919392182 0.7919392182  Biso 1.0 Ge
Ge7 1.0000000000 0.2919392182 0.7919392182 0.1241823455  Biso 1.0 Ge
Ge8 1.0000000000 0.2919392182 0.1241823455 0.7919392182  Biso 1.0 Ge
Ge9 1.0000000000 0.7080607818 0.2080607818 0.2080607818  Biso 1.0 Ge
Ge10 1.0000000000 0.3758176545 0.2080607818 0.2080607818  Biso 1.0 Ge
Ge11 1.0000000000 0.7080607818 0.2080607818 0.8758176545  Biso 1.0 Ge
Ge12 1.0000000000 0.7080607818 0.8758176545 0.2080607818  Biso 1.0 Ge
S13 1.0000000000 0.8723220394 0.7092259869 0.7092259869  Biso 1.0 S
S14 1.0000000000 0.2092259869 0.7092259869 0.7092259869  Biso 1.0 S
S15 1.0000000000 0.2092259869 0.7092259869 0.3723220394  Biso 1.0 S
S16 1.0000000000 0.2092259869 0.3723220394 0.7092259869  Biso 1.0 S
S17 1.0000000000 0.7907740131 0.2907740131 0.2907740131  Biso 1.0 S
S18 1.0000000000 0.1276779606 0.2907740131 0.2907740131  Biso 1.0 S
S19 1.0000000000 0.7907740131 0.2907740131 0.6276779606  Biso 1.0 S
S20 1.0000000000 0.7907740131 0.6276779606 0.2907740131  Biso 1.0 S
S21 1.0000000000 0.5484222434 0.7015777566 0.7015777566  Biso 1.0 S
S22 1.0000000000 0.2015777566 0.0484222434 0.0484222434  Biso 1.0 S
S23 1.0000000000 0.5484222434 0.0484222434 0.7015777566  Biso 1.0 S
S24 1.0000000000 0.2015777566 0.7015777566 0.0484222434  Biso 1.0 S
S25 1.0000000000 0.5484222434 0.7015777566 0.0484222434  Biso 1.0 S
S26 1.0000000000 0.2015777566 0.0484222434 0.7015777566  Biso 1.0 S
S27 1.0000000000 0.4515777566 0.2984222434 0.2984222434  Biso 1.0 S
S28 1.0000000000 0.7984222434 0.9515777566 0.9515777566  Biso 1.0 S
S29 1.0000000000 0.7984222434 0.9515777566 0.2984222434  Biso 1.0 S
S30 1.0000000000 0.4515777566 0.2984222434 0.9515777566  Biso 1.0 S
S31 1.0000000000 0.7984222434 0.2984222434 0.9515777566  Biso 1.0 S
S32 1.0000000000 0.4515777566 0.9515777566 0.2984222434  Biso 1.0 S
