# AFLOW.org Repositories
# Ba2Hg1   [BCT,BCT2,tI6] (STD_PRIM doi:10
data_Ba2Hg1
_pd_phase_name Ba2Hg1
_cell_length_a  8.1843466791
_cell_length_b  8.1843466791
_cell_length_c  8.1843466791
_cell_angle_alpha  149.8028915847
_cell_angle_beta  149.8028915847
_cell_angle_gamma  43.2308135352
_symmetry_space_group_name_H-M  'P1'
_symmetry_Int_Tables_Number  1
loop_
_symmetry_equiv_pos_site_id
_symmetry_equiv_pos_as_xyz
  1  x,y,z
loop_
 _atom_site_label
 _atom_site_occupancy
 _atom_site_fract_x
 _atom_site_fract_y
 _atom_site_fract_z
 _atom_site_thermal_displace_type
 _atom_site_B_iso_or_equiv
 _atom_site_type_symbol
Ba1 1.0000000000 0.3697027506 0.3697027506 0.0000000000  Biso 1.0 Ba
Ba2 1.0000000000 0.6302972494 0.6302972494 0.0000000000  Biso 1.0 Ba
Hg3 1.0000000000 0.0000000000 0.0000000000 0.0000000000  Biso 1.0 Hg
