# AFLOW.org Repositories
# Ba5Sn3   [BCT,BCT2,tI32] (STD_PRIM doi:1
data_Ba5Sn3
_pd_phase_name Ba5Sn3
_cell_length_a  10.8093319260
_cell_length_b  10.8093319260
_cell_length_c  10.8093319260
_cell_angle_alpha  130.3224161993
_cell_angle_beta  130.3224161993
_cell_angle_gamma  72.8918530600
_symmetry_space_group_name_H-M  'P1'
_symmetry_Int_Tables_Number  1
loop_
_symmetry_equiv_pos_site_id
_symmetry_equiv_pos_as_xyz
  1  x,y,z
loop_
 _atom_site_label
 _atom_site_occupancy
 _atom_site_fract_x
 _atom_site_fract_y
 _atom_site_fract_z
 _atom_site_thermal_displace_type
 _atom_site_B_iso_or_equiv
 _atom_site_type_symbol
Ba1 1.0000000000 0.1785653007 0.0358245772 0.5000000000  Biso 1.0 Ba
Ba2 1.0000000000 0.5358245772 0.6785653007 0.5000000000  Biso 1.0 Ba
Ba3 1.0000000000 0.6785653007 0.1785653007 0.1427407235  Biso 1.0 Ba
Ba4 1.0000000000 0.0358245772 0.5358245772 0.8572592765  Biso 1.0 Ba
Ba5 1.0000000000 0.9641754228 0.4641754228 0.1427407235  Biso 1.0 Ba
Ba6 1.0000000000 0.3214346993 0.8214346993 0.8572592765  Biso 1.0 Ba
Ba7 1.0000000000 0.4641754228 0.3214346993 0.5000000000  Biso 1.0 Ba
Ba8 1.0000000000 0.8214346993 0.9641754228 0.5000000000  Biso 1.0 Ba
Ba9 1.0000000000 0.0000000000 0.0000000000 0.0000000000  Biso 1.0 Ba
Ba10 1.0000000000 0.5000000000 0.5000000000 0.0000000000  Biso 1.0 Ba
Sn11 1.0000000000 0.1164505768 0.3835494232 0.5000000000  Biso 1.0 Sn
Sn12 1.0000000000 0.8835494232 0.6164505768 0.5000000000  Biso 1.0 Sn
Sn13 1.0000000000 0.6164505768 0.1164505768 0.7329011535  Biso 1.0 Sn
Sn14 1.0000000000 0.3835494232 0.8835494232 0.2670988465  Biso 1.0 Sn
Sn15 1.0000000000 0.7500000000 0.7500000000 0.0000000000  Biso 1.0 Sn
Sn16 1.0000000000 0.2500000000 0.2500000000 0.0000000000  Biso 1.0 Sn
