# AFLOW.org Repositories
# Be1Cl2   [BCC,BCC,cI36] (STD_PRIM doi:10
data_Be1Cl2
_pd_phase_name Be1Cl2
_cell_length_a  8.5374752448
_cell_length_b  8.5374752448
_cell_length_c  8.5374752448
_cell_angle_alpha  109.4712206345
_cell_angle_beta  109.4712206345
_cell_angle_gamma  109.4712206345
_symmetry_space_group_name_H-M  'P1'
_symmetry_Int_Tables_Number  1
loop_
_symmetry_equiv_pos_site_id
_symmetry_equiv_pos_as_xyz
  1  x,y,z
loop_
 _atom_site_label
 _atom_site_occupancy
 _atom_site_fract_x
 _atom_site_fract_y
 _atom_site_fract_z
 _atom_site_thermal_displace_type
 _atom_site_B_iso_or_equiv
 _atom_site_type_symbol
Be1 1.0000000000 0.5000000000 0.2500000000 0.7500000000  Biso 1.0 Be
Be2 1.0000000000 0.5000000000 0.7500000000 0.2500000000  Biso 1.0 Be
Be3 1.0000000000 0.2500000000 0.7500000000 0.5000000000  Biso 1.0 Be
Be4 1.0000000000 0.7500000000 0.2500000000 0.5000000000  Biso 1.0 Be
Be5 1.0000000000 0.7500000000 0.5000000000 0.2500000000  Biso 1.0 Be
Be6 1.0000000000 0.2500000000 0.5000000000 0.7500000000  Biso 1.0 Be
Cl7 1.0000000000 0.4722662973 0.7310515846 0.4722662973  Biso 1.0 Cl
Cl8 1.0000000000 0.7412147127 0.2689484154 0.7412147127  Biso 1.0 Cl
Cl9 1.0000000000 0.2587852873 0.0000000000 0.5277337027  Biso 1.0 Cl
Cl10 1.0000000000 0.5277337027 0.0000000000 0.2587852873  Biso 1.0 Cl
Cl11 1.0000000000 0.7310515846 0.4722662973 0.4722662973  Biso 1.0 Cl
Cl12 1.0000000000 0.2689484154 0.7412147127 0.7412147127  Biso 1.0 Cl
Cl13 1.0000000000 0.0000000000 0.5277337027 0.2587852873  Biso 1.0 Cl
Cl14 1.0000000000 0.0000000000 0.2587852873 0.5277337027  Biso 1.0 Cl
Cl15 1.0000000000 0.4722662973 0.4722662973 0.7310515846  Biso 1.0 Cl
Cl16 1.0000000000 0.7412147127 0.7412147127 0.2689484154  Biso 1.0 Cl
Cl17 1.0000000000 0.5277337027 0.2587852873 0.0000000000  Biso 1.0 Cl
Cl18 1.0000000000 0.2587852873 0.5277337027 0.0000000000  Biso 1.0 Cl
