# AFLOW.org Repositories
# Be1N2Si1   [BCT,BCT2,tI16] (STD_PRIM doi
data_Be1N2Si1
_pd_phase_name Be1N2Si1
_cell_length_a  4.9964267138
_cell_length_b  4.9964267138
_cell_length_c  4.9964267138
_cell_angle_alpha  131.8824107301
_cell_angle_beta  131.8824107301
_cell_angle_gamma  70.4148098697
_symmetry_space_group_name_H-M  'P1'
_symmetry_Int_Tables_Number  1
loop_
_symmetry_equiv_pos_site_id
_symmetry_equiv_pos_as_xyz
  1  x,y,z
loop_
 _atom_site_label
 _atom_site_occupancy
 _atom_site_fract_x
 _atom_site_fract_y
 _atom_site_fract_z
 _atom_site_thermal_displace_type
 _atom_site_B_iso_or_equiv
 _atom_site_type_symbol
Be1 1.0000000000 0.0000000000 0.0000000000 0.0000000000  Biso 1.0 Be
Be2 1.0000000000 0.2500000000 0.7500000000 0.5000000000  Biso 1.0 Be
N3 1.0000000000 0.8705099100 0.3750000000 0.9955099100  Biso 1.0 N
N4 1.0000000000 0.3794900900 0.8750000000 0.0044900900  Biso 1.0 N
N5 1.0000000000 0.6250000000 0.6205099100 0.4955099100  Biso 1.0 N
N6 1.0000000000 0.1250000000 0.1294900900 0.5044900900  Biso 1.0 N
Si7 1.0000000000 0.5000000000 0.5000000000 0.0000000000  Biso 1.0 Si
Si8 1.0000000000 0.7500000000 0.2500000000 0.5000000000  Biso 1.0 Si
