# AFLOW.org Repositories
# Be1O1   [HEX,HEX,hP4] (STD_PRIM doi:10.1
data_Be1O1
_pd_phase_name Be1O1
_cell_length_a  2.7108330084
_cell_length_b  2.7108330084
_cell_length_c  4.4027462396
_cell_angle_alpha  90.0000000000
_cell_angle_beta  90.0000000000
_cell_angle_gamma  120.0000000000
_symmetry_space_group_name_H-M  'P1'
_symmetry_Int_Tables_Number  1
loop_
_symmetry_equiv_pos_site_id
_symmetry_equiv_pos_as_xyz
  1  x,y,z
loop_
 _atom_site_label
 _atom_site_occupancy
 _atom_site_fract_x
 _atom_site_fract_y
 _atom_site_fract_z
 _atom_site_thermal_displace_type
 _atom_site_B_iso_or_equiv
 _atom_site_type_symbol
Be1 1.0000000000 0.3333402399 0.6666701200 0.0000000000  Biso 1.0 Be
Be2 1.0000000000 0.6666597601 0.3333298800 0.5003045497  Biso 1.0 Be
O3 1.0000000000 0.3333419735 0.6666709868 0.3782954503  Biso 1.0 O
O4 1.0000000000 0.6666580265 0.3333290132 0.8782954503  Biso 1.0 O
