# AFLOW.org Repositories
# Be2V1   [HEX,HEX,hP12] (STD_PRIM doi:10.
data_Be2V1
_pd_phase_name Be2V1
_cell_length_a  4.3970985912
_cell_length_b  4.3970985912
_cell_length_c  7.1013204599
_cell_angle_alpha  90.0000000000
_cell_angle_beta  90.0000000000
_cell_angle_gamma  120.0000000000
_symmetry_space_group_name_H-M  'P1'
_symmetry_Int_Tables_Number  1
loop_
_symmetry_equiv_pos_site_id
_symmetry_equiv_pos_as_xyz
  1  x,y,z
loop_
 _atom_site_label
 _atom_site_occupancy
 _atom_site_fract_x
 _atom_site_fract_y
 _atom_site_fract_z
 _atom_site_thermal_displace_type
 _atom_site_B_iso_or_equiv
 _atom_site_type_symbol
Be1 1.0000000000 0.0000000000 0.0000000000 0.0000000000  Biso 1.0 Be
Be2 1.0000000000 0.0000000000 0.0000000000 0.5000000000  Biso 1.0 Be
Be3 1.0000000000 0.8297477066 0.6594885516 0.2500000000  Biso 1.0 Be
Be4 1.0000000000 0.3405114484 0.1702522934 0.2500000000  Biso 1.0 Be
Be5 1.0000000000 0.8297330769 0.1702669231 0.2500000000  Biso 1.0 Be
Be6 1.0000000000 0.1702522934 0.3405114484 0.7500000000  Biso 1.0 Be
Be7 1.0000000000 0.6594885516 0.8297477066 0.7500000000  Biso 1.0 Be
Be8 1.0000000000 0.1702669231 0.8297330769 0.7500000000  Biso 1.0 Be
V9 1.0000000000 0.3333336753 0.6666663247 0.0657086130  Biso 1.0 V
V10 1.0000000000 0.6666663247 0.3333336753 0.5657086130  Biso 1.0 V
V11 1.0000000000 0.6666663247 0.3333336753 0.9342913870  Biso 1.0 V
V12 1.0000000000 0.3333336753 0.6666663247 0.4342913870  Biso 1.0 V
