# AFLOW.org Repositories
# Bi1Fe1O3   [ORC,ORC,oP20] (STD_PRIM doi:
data_Bi1Fe1O3
_pd_phase_name Bi1Fe1O3
_cell_length_a  5.5033943799
_cell_length_b  5.7423181252
_cell_length_c  7.9030996406
_cell_angle_alpha  90.0000000000
_cell_angle_beta  90.0000000000
_cell_angle_gamma  90.0000000000
_symmetry_space_group_name_H-M  'P1'
_symmetry_Int_Tables_Number  1
loop_
_symmetry_equiv_pos_site_id
_symmetry_equiv_pos_as_xyz
  1  x,y,z
loop_
 _atom_site_label
 _atom_site_occupancy
 _atom_site_fract_x
 _atom_site_fract_y
 _atom_site_fract_z
 _atom_site_thermal_displace_type
 _atom_site_B_iso_or_equiv
 _atom_site_type_symbol
Bi1 1.0000000000 0.0094932191 0.0509386069 0.7500000000  Biso 1.0 Bi
Bi2 1.0000000000 0.5094932191 0.4490613931 0.2500000000  Biso 1.0 Bi
Bi3 1.0000000000 0.9905067809 0.9490613931 0.2500000000  Biso 1.0 Bi
Bi4 1.0000000000 0.4905067809 0.5509386069 0.7500000000  Biso 1.0 Bi
Fe5 1.0000000000 0.5000000000 0.0000000000 0.0000000000  Biso 1.0 Fe
Fe6 1.0000000000 0.0000000000 0.5000000000 0.0000000000  Biso 1.0 Fe
Fe7 1.0000000000 0.5000000000 0.0000000000 0.5000000000  Biso 1.0 Fe
Fe8 1.0000000000 0.0000000000 0.5000000000 0.5000000000  Biso 1.0 Fe
O9 1.0000000000 0.5999488907 0.9704649028 0.7500000000  Biso 1.0 O
O10 1.0000000000 0.0999488907 0.5295350972 0.2500000000  Biso 1.0 O
O11 1.0000000000 0.4000511093 0.0295350972 0.2500000000  Biso 1.0 O
O12 1.0000000000 0.9000511093 0.4704649028 0.7500000000  Biso 1.0 O
O13 1.0000000000 0.8071952568 0.1974064340 0.0481495784  Biso 1.0 O
O14 1.0000000000 0.3071952568 0.3025935660 0.9518504216  Biso 1.0 O
O15 1.0000000000 0.1928047432 0.8025935660 0.5481495784  Biso 1.0 O
O16 1.0000000000 0.6928047432 0.6974064340 0.4518504216  Biso 1.0 O
O17 1.0000000000 0.1928047432 0.8025935660 0.9518504216  Biso 1.0 O
O18 1.0000000000 0.6928047432 0.6974064340 0.0481495784  Biso 1.0 O
O19 1.0000000000 0.8071952568 0.1974064340 0.4518504216  Biso 1.0 O
O20 1.0000000000 0.3071952568 0.3025935660 0.5481495784  Biso 1.0 O
