# AFLOW.org Repositories
# Bi1In1O3   [ORC,ORC,oP20] (STD_PRIM doi:
data_Bi1In1O3
_pd_phase_name Bi1In1O3
_cell_length_a  5.7006935970
_cell_length_b  6.0134616737
_cell_length_c  8.4618284151
_cell_angle_alpha  90.0000000000
_cell_angle_beta  90.0000000000
_cell_angle_gamma  90.0000000000
_symmetry_space_group_name_H-M  'P1'
_symmetry_Int_Tables_Number  1
loop_
_symmetry_equiv_pos_site_id
_symmetry_equiv_pos_as_xyz
  1  x,y,z
loop_
 _atom_site_label
 _atom_site_occupancy
 _atom_site_fract_x
 _atom_site_fract_y
 _atom_site_fract_z
 _atom_site_thermal_displace_type
 _atom_site_B_iso_or_equiv
 _atom_site_type_symbol
Bi1 1.0000000000 0.0035643712 0.0600045136 0.2052282168  Biso 1.0 Bi
Bi2 1.0000000000 0.9964356288 0.9399954864 0.7052282168  Biso 1.0 Bi
Bi3 1.0000000000 0.4964356288 0.5600045136 0.2052282168  Biso 1.0 Bi
Bi4 1.0000000000 0.5035643712 0.4399954864 0.7052282168  Biso 1.0 Bi
In5 1.0000000000 0.5015620030 0.0000000000 0.9844533330  Biso 1.0 In
In6 1.0000000000 0.4984379970 0.0000000000 0.4844533330  Biso 1.0 In
In7 1.0000000000 0.9984379970 0.5000394493 0.9844533330  Biso 1.0 In
In8 1.0000000000 0.0015620030 0.4999605507 0.4844533330  Biso 1.0 In
O9 1.0000000000 0.3891172272 0.9509574275 0.2430227904  Biso 1.0 O
O10 1.0000000000 0.6108827728 0.0490425725 0.7430227904  Biso 1.0 O
O11 1.0000000000 0.1108827728 0.4509574275 0.2430227904  Biso 1.0 O
O12 1.0000000000 0.8891172272 0.5490425725 0.7430227904  Biso 1.0 O
O13 1.0000000000 0.2006247446 0.2096182703 0.5633849188  Biso 1.0 O
O14 1.0000000000 0.7993752554 0.7903817297 0.0633849188  Biso 1.0 O
O15 1.0000000000 0.2993752554 0.7096182703 0.5633849188  Biso 1.0 O
O16 1.0000000000 0.7006247446 0.2903817297 0.0633849188  Biso 1.0 O
O17 1.0000000000 0.6630233809 0.3366476101 0.4742107410  Biso 1.0 O
O18 1.0000000000 0.3369766191 0.6633523899 0.9742107410  Biso 1.0 O
O19 1.0000000000 0.8369766191 0.8366476101 0.4742107410  Biso 1.0 O
O20 1.0000000000 0.1630233809 0.1633523899 0.9742107410  Biso 1.0 O
