# AFLOW.org Repositories
# Bi1O4V1   [BCT,BCT1,tI24] (STD_PRIM doi:
data_Bi1O4V1
_pd_phase_name Bi1O4V1
_cell_length_a  6.1661819283
_cell_length_b  6.1661819283
_cell_length_c  6.1661819283
_cell_angle_alpha  106.2013449812
_cell_angle_beta  106.2013449812
_cell_angle_gamma  116.2298152732
_symmetry_space_group_name_H-M  'P1'
_symmetry_Int_Tables_Number  1
loop_
_symmetry_equiv_pos_site_id
_symmetry_equiv_pos_as_xyz
  1  x,y,z
loop_
 _atom_site_label
 _atom_site_occupancy
 _atom_site_fract_x
 _atom_site_fract_y
 _atom_site_fract_z
 _atom_site_thermal_displace_type
 _atom_site_B_iso_or_equiv
 _atom_site_type_symbol
Bi1 1.0000000000 0.8750000000 0.6250000000 0.7500000000  Biso 1.0 Bi
Bi2 1.0000000000 0.1250000000 0.3750000000 0.2500000000  Biso 1.0 Bi
O3 1.0000000000 0.7953716815 0.8636848467 0.0683131651  Biso 1.0 O
O4 1.0000000000 0.7953716815 0.2270585164 0.4316868349  Biso 1.0 O
O5 1.0000000000 0.7270585164 0.2953716815 0.9316868349  Biso 1.0 O
O6 1.0000000000 0.3636848467 0.2953716815 0.5683131651  Biso 1.0 O
O7 1.0000000000 0.2046283185 0.7729414836 0.5683131651  Biso 1.0 O
O8 1.0000000000 0.2046283185 0.1363151533 0.9316868349  Biso 1.0 O
O9 1.0000000000 0.2729414836 0.7046283185 0.0683131651  Biso 1.0 O
O10 1.0000000000 0.6363151533 0.7046283185 0.4316868349  Biso 1.0 O
V11 1.0000000000 0.6250000000 0.8750000000 0.2500000000  Biso 1.0 V
V12 1.0000000000 0.3750000000 0.1250000000 0.7500000000  Biso 1.0 V
