# AFLOW.org Repositories
# Bi1Pd1Te1   [CUB,CUB,cP12] (STD_PRIM doi
data_Bi1Pd1Te1
_pd_phase_name Bi1Pd1Te1
_cell_length_a  6.7500855121
_cell_length_b  6.7500855121
_cell_length_c  6.7500855121
_cell_angle_alpha  90.0000000000
_cell_angle_beta  90.0000000000
_cell_angle_gamma  90.0000000000
_symmetry_space_group_name_H-M  'P1'
_symmetry_Int_Tables_Number  1
loop_
_symmetry_equiv_pos_site_id
_symmetry_equiv_pos_as_xyz
  1  x,y,z
loop_
 _atom_site_label
 _atom_site_occupancy
 _atom_site_fract_x
 _atom_site_fract_y
 _atom_site_fract_z
 _atom_site_thermal_displace_type
 _atom_site_B_iso_or_equiv
 _atom_site_type_symbol
Bi1 1.0000000000 0.6315692759 0.6315692759 0.3684307241  Biso 1.0 Bi
Bi2 1.0000000000 0.8684307241 0.3684307241 0.8684307241  Biso 1.0 Bi
Bi3 1.0000000000 0.3684307241 0.1315692759 0.1315692759  Biso 1.0 Bi
Bi4 1.0000000000 0.1315692759 0.8684307241 0.6315692759  Biso 1.0 Bi
Pd5 1.0000000000 0.9951541703 0.9951541703 0.0048458297  Biso 1.0 Pd
Pd6 1.0000000000 0.5048458297 0.0048458297 0.5048458297  Biso 1.0 Pd
Pd7 1.0000000000 0.0048458297 0.4951541703 0.4951541703  Biso 1.0 Pd
Pd8 1.0000000000 0.4951541703 0.5048458297 0.9951541703  Biso 1.0 Pd
Te9 1.0000000000 0.3738282440 0.3738282440 0.6261717560  Biso 1.0 Te
Te10 1.0000000000 0.1261717560 0.6261717560 0.1261717560  Biso 1.0 Te
Te11 1.0000000000 0.6261717560 0.8738282440 0.8738282440  Biso 1.0 Te
Te12 1.0000000000 0.8738282440 0.1261717560 0.3738282440  Biso 1.0 Te
