# AFLOW.org Repositories
# Bi3Sr4   [BCC,BCC,cI28] (STD_PRIM doi:10
data_Bi3Sr4
_pd_phase_name Bi3Sr4
_cell_length_a  8.8258632721
_cell_length_b  8.8258632721
_cell_length_c  8.8258632721
_cell_angle_alpha  109.4712206345
_cell_angle_beta  109.4712206345
_cell_angle_gamma  109.4712206345
_symmetry_space_group_name_H-M  'P1'
_symmetry_Int_Tables_Number  1
loop_
_symmetry_equiv_pos_site_id
_symmetry_equiv_pos_as_xyz
  1  x,y,z
loop_
 _atom_site_label
 _atom_site_occupancy
 _atom_site_fract_x
 _atom_site_fract_y
 _atom_site_fract_z
 _atom_site_thermal_displace_type
 _atom_site_B_iso_or_equiv
 _atom_site_type_symbol
Bi1 1.0000000000 0.3750000000 0.7500000000 0.1250000000  Biso 1.0 Bi
Bi2 1.0000000000 0.1250000000 0.2500000000 0.3750000000  Biso 1.0 Bi
Bi3 1.0000000000 0.8750000000 0.6250000000 0.2500000000  Biso 1.0 Bi
Bi4 1.0000000000 0.6250000000 0.8750000000 0.7500000000  Biso 1.0 Bi
Bi5 1.0000000000 0.7500000000 0.3750000000 0.6250000000  Biso 1.0 Bi
Bi6 1.0000000000 0.2500000000 0.1250000000 0.8750000000  Biso 1.0 Bi
Sr7 1.0000000000 0.0000000000 0.8542933372 0.0000000000  Biso 1.0 Sr
Sr8 1.0000000000 0.5000000000 0.5000000000 0.8542933372  Biso 1.0 Sr
Sr9 1.0000000000 0.3542933372 0.0000000000 0.5000000000  Biso 1.0 Sr
Sr10 1.0000000000 0.1457066628 0.6457066628 0.6457066628  Biso 1.0 Sr
Sr11 1.0000000000 0.0000000000 0.3542933372 0.0000000000  Biso 1.0 Sr
Sr12 1.0000000000 0.5000000000 0.5000000000 0.3542933372  Biso 1.0 Sr
Sr13 1.0000000000 0.6457066628 0.1457066628 0.1457066628  Biso 1.0 Sr
Sr14 1.0000000000 0.8542933372 0.0000000000 0.5000000000  Biso 1.0 Sr
