# AFLOW.org Repositories
# Br1La5Sb3   [HEX,HEX,hP18] (STD_PRIM doi
data_Br1La5Sb3
_pd_phase_name Br1La5Sb3
_cell_length_a  9.7211960883
_cell_length_b  9.7211960883
_cell_length_c  6.8455684518
_cell_angle_alpha  90.0000000000
_cell_angle_beta  90.0000000000
_cell_angle_gamma  120.0000000000
_symmetry_space_group_name_H-M  'P1'
_symmetry_Int_Tables_Number  1
loop_
_symmetry_equiv_pos_site_id
_symmetry_equiv_pos_as_xyz
  1  x,y,z
loop_
 _atom_site_label
 _atom_site_occupancy
 _atom_site_fract_x
 _atom_site_fract_y
 _atom_site_fract_z
 _atom_site_thermal_displace_type
 _atom_site_B_iso_or_equiv
 _atom_site_type_symbol
Br1 1.0000000000 0.0000000000 0.0000000000 0.0000000000  Biso 1.0 Br
Br2 1.0000000000 0.0000000000 0.0000000000 0.5000000000  Biso 1.0 Br
La3 1.0000000000 0.3333192369 0.6666819647 0.0000000000  Biso 1.0 La
La4 1.0000000000 0.6666807631 0.3333180353 0.5000005145  Biso 1.0 La
La5 1.0000000000 0.6666807631 0.3333180353 0.0000000000  Biso 1.0 La
La6 1.0000000000 0.3333192369 0.6666819647 0.4999994855  Biso 1.0 La
La7 1.0000000000 0.0000000000 0.7247547552 0.2500000000  Biso 1.0 La
La8 1.0000000000 0.2752511635 0.2752511635 0.2500000000  Biso 1.0 La
La9 1.0000000000 0.7247553525 0.0000000000 0.2500000000  Biso 1.0 La
La10 1.0000000000 0.0000000000 0.2752452448 0.7500000000  Biso 1.0 La
La11 1.0000000000 0.7247488365 0.7247488365 0.7500000000  Biso 1.0 La
La12 1.0000000000 0.2752446475 0.0000000000 0.7500000000  Biso 1.0 La
Sb13 1.0000000000 0.6168060741 0.6168060741 0.2500000000  Biso 1.0 Sb
Sb14 1.0000000000 0.3831868872 0.0000000000 0.2500000000  Biso 1.0 Sb
Sb15 1.0000000000 0.0000000000 0.3831888834 0.2500000000  Biso 1.0 Sb
Sb16 1.0000000000 0.3831939259 0.3831939259 0.7500000000  Biso 1.0 Sb
Sb17 1.0000000000 0.6168131128 0.0000000000 0.7500000000  Biso 1.0 Sb
Sb18 1.0000000000 0.0000000000 0.6168111166 0.7500000000  Biso 1.0 Sb
