# AFLOW.org Repositories
# Br2H12Sr7   [HEX,HEX,hP21] (STD_PRIM doi
data_Br2H12Sr7
_pd_phase_name Br2H12Sr7
_cell_length_a  10.0439626723
_cell_length_b  10.0439626723
_cell_length_c  4.0131400488
_cell_angle_alpha  90.0000000000
_cell_angle_beta  90.0000000000
_cell_angle_gamma  120.0000000000
_symmetry_space_group_name_H-M  'P1'
_symmetry_Int_Tables_Number  1
loop_
_symmetry_equiv_pos_site_id
_symmetry_equiv_pos_as_xyz
  1  x,y,z
loop_
 _atom_site_label
 _atom_site_occupancy
 _atom_site_fract_x
 _atom_site_fract_y
 _atom_site_fract_z
 _atom_site_thermal_displace_type
 _atom_site_B_iso_or_equiv
 _atom_site_type_symbol
Br1 1.0000000000 0.0000000000 0.0000000000 0.0000000000  Biso 1.0 Br
Br2 1.0000000000 0.6666682582 0.3333358479 0.5000000000  Biso 1.0 Br
H3 1.0000000000 0.3951205811 0.0894822867 0.0000000000  Biso 1.0 H
H4 1.0000000000 0.9105173439 0.3056383325 0.0000000000  Biso 1.0 H
H5 1.0000000000 0.6943623708 0.6048801255 0.0000000000  Biso 1.0 H
H6 1.0000000000 0.1797517492 0.7877393483 0.0000000000  Biso 1.0 H
H7 1.0000000000 0.2122610964 0.3920112443 0.0000000000  Biso 1.0 H
H8 1.0000000000 0.6079876531 0.8202485273 0.0000000000  Biso 1.0 H
H9 1.0000000000 0.2831770089 0.2267395752 0.5000000000  Biso 1.0 H
H10 1.0000000000 0.7732595698 0.0564367174 0.5000000000  Biso 1.0 H
H11 1.0000000000 0.9435634927 0.7168233432 0.5000000000  Biso 1.0 H
H12 1.0000000000 0.4386915498 0.8794677100 0.5000000000  Biso 1.0 H
H13 1.0000000000 0.1205323705 0.5592234254 0.5000000000  Biso 1.0 H
H14 1.0000000000 0.4407766569 0.5613078474 0.5000000000  Biso 1.0 H
Sr15 1.0000000000 0.3333319058 0.6666629314 0.0000000000  Biso 1.0 Sr
Sr16 1.0000000000 0.4327058112 0.3581947834 0.0000000000  Biso 1.0 Sr
Sr17 1.0000000000 0.6418045931 0.0745142837 0.0000000000  Biso 1.0 Sr
Sr18 1.0000000000 0.9254865654 0.5672925102 0.0000000000  Biso 1.0 Sr
Sr19 1.0000000000 0.2241118913 0.9492823333 0.5000000000  Biso 1.0 Sr
Sr20 1.0000000000 0.0507190752 0.2748312041 0.5000000000  Biso 1.0 Sr
Sr21 1.0000000000 0.7251696635 0.7758875804 0.5000000000  Biso 1.0 Sr
