# AFLOW.org Repositories
# Br5Pb2Rb1   [BCT,BCT2,tI32] (STD_PRIM do
data_Br5Pb2Rb1
_pd_phase_name Br5Pb2Rb1
_cell_length_a  9.6923960771
_cell_length_b  9.6923960771
_cell_length_c  9.6923960771
_cell_angle_alpha  127.6676929430
_cell_angle_beta  127.6676929430
_cell_angle_gamma  77.1639740272
_symmetry_space_group_name_H-M  'P1'
_symmetry_Int_Tables_Number  1
loop_
_symmetry_equiv_pos_site_id
_symmetry_equiv_pos_as_xyz
  1  x,y,z
loop_
 _atom_site_label
 _atom_site_occupancy
 _atom_site_fract_x
 _atom_site_fract_y
 _atom_site_fract_z
 _atom_site_thermal_displace_type
 _atom_site_B_iso_or_equiv
 _atom_site_type_symbol
Br1 1.0000000000 0.0000000000 0.0000000000 0.0000000000  Biso 1.0 Br
Br2 1.0000000000 0.5000000000 0.5000000000 0.0000000000  Biso 1.0 Br
Br3 1.0000000000 0.9768897359 0.7855617048 0.5000000000  Biso 1.0 Br
Br4 1.0000000000 0.2855617048 0.4768897359 0.5000000000  Biso 1.0 Br
Br5 1.0000000000 0.4768897359 0.9768897359 0.1913280311  Biso 1.0 Br
Br6 1.0000000000 0.7855617048 0.2855617048 0.8086719689  Biso 1.0 Br
Br7 1.0000000000 0.2144382952 0.7144382952 0.1913280311  Biso 1.0 Br
Br8 1.0000000000 0.5231102641 0.0231102641 0.8086719689  Biso 1.0 Br
Br9 1.0000000000 0.7144382952 0.5231102641 0.5000000000  Biso 1.0 Br
Br10 1.0000000000 0.0231102641 0.2144382952 0.5000000000  Biso 1.0 Br
Pb11 1.0000000000 0.3341229710 0.1658770290 0.5000000000  Biso 1.0 Pb
Pb12 1.0000000000 0.6658770290 0.8341229710 0.5000000000  Biso 1.0 Pb
Pb13 1.0000000000 0.8341229710 0.3341229710 0.1682459421  Biso 1.0 Pb
Pb14 1.0000000000 0.1658770290 0.6658770290 0.8317540579  Biso 1.0 Pb
Rb15 1.0000000000 0.7500000000 0.7500000000 0.0000000000  Biso 1.0 Rb
Rb16 1.0000000000 0.2500000000 0.2500000000 0.0000000000  Biso 1.0 Rb
