# AFLOW.org Repositories
# C1   [ORC,ORC,oP16] (STD_PRIM doi:10.101
data_C1
_pd_phase_name C1
_cell_length_a  2.5248230027
_cell_length_b  4.1552088669
_cell_length_c  9.0837860198
_cell_angle_alpha  90.0000000000
_cell_angle_beta  90.0000000000
_cell_angle_gamma  90.0000000000
_symmetry_space_group_name_H-M  'P1'
_symmetry_Int_Tables_Number  1
loop_
_symmetry_equiv_pos_site_id
_symmetry_equiv_pos_as_xyz
  1  x,y,z
loop_
 _atom_site_label
 _atom_site_occupancy
 _atom_site_fract_x
 _atom_site_fract_y
 _atom_site_fract_z
 _atom_site_thermal_displace_type
 _atom_site_B_iso_or_equiv
 _atom_site_type_symbol
C1 1.0000000000 0.2500000000 0.9256311451 0.1949094579  Biso 1.0 C
C2 1.0000000000 0.7500000000 0.4256311451 0.3050905421  Biso 1.0 C
C3 1.0000000000 0.7500000000 0.0743688549 0.8050905421  Biso 1.0 C
C4 1.0000000000 0.2500000000 0.5743688549 0.6949094579  Biso 1.0 C
C5 1.0000000000 0.7500000000 0.7000944630 0.1895167629  Biso 1.0 C
C6 1.0000000000 0.2500000000 0.2000944630 0.3104832371  Biso 1.0 C
C7 1.0000000000 0.2500000000 0.2999055370 0.8104832371  Biso 1.0 C
C8 1.0000000000 0.7500000000 0.7999055370 0.6895167629  Biso 1.0 C
C9 1.0000000000 0.7500000000 0.9084372304 0.5207376017  Biso 1.0 C
C10 1.0000000000 0.2500000000 0.4084372304 0.9792623983  Biso 1.0 C
C11 1.0000000000 0.2500000000 0.0915627696 0.4792623983  Biso 1.0 C
C12 1.0000000000 0.7500000000 0.5915627696 0.0207376017  Biso 1.0 C
C13 1.0000000000 0.7500000000 0.5685029873 0.4634588620  Biso 1.0 C
C14 1.0000000000 0.2500000000 0.0685029873 0.0365411380  Biso 1.0 C
C15 1.0000000000 0.2500000000 0.4314970127 0.5365411380  Biso 1.0 C
C16 1.0000000000 0.7500000000 0.9314970127 0.9634588620  Biso 1.0 C
