# AFLOW.org Repositories
# C1   [ORCC,ORCC,oS16] (STD_PRIM doi:10.1
data_C1
_pd_phase_name C1
_cell_length_a  4.8734247580
_cell_length_b  4.8734247580
_cell_length_c  2.5140530215
_cell_angle_alpha  90.0000000000
_cell_angle_beta  90.0000000000
_cell_angle_gamma  128.2354217994
_symmetry_space_group_name_H-M  'P1'
_symmetry_Int_Tables_Number  1
loop_
_symmetry_equiv_pos_site_id
_symmetry_equiv_pos_as_xyz
  1  x,y,z
loop_
 _atom_site_label
 _atom_site_occupancy
 _atom_site_fract_x
 _atom_site_fract_y
 _atom_site_fract_z
 _atom_site_thermal_displace_type
 _atom_site_B_iso_or_equiv
 _atom_site_type_symbol
C1 1.0000000000 0.9814110485 0.6482019113 0.0000000000  Biso 1.0 C
C2 1.0000000000 0.0185889515 0.3517980887 0.0000000000  Biso 1.0 C
C3 1.0000000000 0.6482019113 0.9814110485 0.0000000000  Biso 1.0 C
C4 1.0000000000 0.3517980887 0.0185889515 0.0000000000  Biso 1.0 C
C5 1.0000000000 0.2263543615 0.4047068746 0.5000000000  Biso 1.0 C
C6 1.0000000000 0.7736456385 0.5952931254 0.5000000000  Biso 1.0 C
C7 1.0000000000 0.4047068746 0.2263543615 0.5000000000  Biso 1.0 C
C8 1.0000000000 0.5952931254 0.7736456385 0.5000000000  Biso 1.0 C
