# AFLOW.org Repositories
# C1Hf3Zn3   [FCC,FCC,cF112] (STD_PRIM doi
data_C1Hf3Zn3
_pd_phase_name C1Hf3Zn3
_cell_length_a  8.5628768911
_cell_length_b  8.5628768911
_cell_length_c  8.5628768911
_cell_angle_alpha  60.0000000000
_cell_angle_beta  60.0000000000
_cell_angle_gamma  60.0000000000
_symmetry_space_group_name_H-M  'P1'
_symmetry_Int_Tables_Number  1
loop_
_symmetry_equiv_pos_site_id
_symmetry_equiv_pos_as_xyz
  1  x,y,z
loop_
 _atom_site_label
 _atom_site_occupancy
 _atom_site_fract_x
 _atom_site_fract_y
 _atom_site_fract_z
 _atom_site_thermal_displace_type
 _atom_site_B_iso_or_equiv
 _atom_site_type_symbol
C1 1.0000000000 0.6250000000 0.6250000000 0.1250000000  Biso 1.0 C
C2 1.0000000000 0.6250000000 0.6250000000 0.6250000000  Biso 1.0 C
C3 1.0000000000 0.1250000000 0.6250000000 0.6250000000  Biso 1.0 C
C4 1.0000000000 0.6250000000 0.1250000000 0.6250000000  Biso 1.0 C
Hf5 1.0000000000 0.3116264684 0.6883735316 0.6883735316  Biso 1.0 Hf
Hf6 1.0000000000 0.6883735316 0.3116264684 0.3116264684  Biso 1.0 Hf
Hf7 1.0000000000 0.6883735316 0.3116264684 0.6883735316  Biso 1.0 Hf
Hf8 1.0000000000 0.3116264684 0.6883735316 0.3116264684  Biso 1.0 Hf
Hf9 1.0000000000 0.3116264684 0.3116264684 0.6883735316  Biso 1.0 Hf
Hf10 1.0000000000 0.6883735316 0.6883735316 0.3116264684  Biso 1.0 Hf
Hf11 1.0000000000 0.9383735316 0.5616264684 0.9383735316  Biso 1.0 Hf
Hf12 1.0000000000 0.5616264684 0.9383735316 0.5616264684  Biso 1.0 Hf
Hf13 1.0000000000 0.5616264684 0.9383735316 0.9383735316  Biso 1.0 Hf
Hf14 1.0000000000 0.9383735316 0.5616264684 0.5616264684  Biso 1.0 Hf
Hf15 1.0000000000 0.9383735316 0.9383735316 0.5616264684  Biso 1.0 Hf
Hf16 1.0000000000 0.5616264684 0.5616264684 0.9383735316  Biso 1.0 Hf
Zn17 1.0000000000 0.9192904732 0.9192904732 0.2421285803  Biso 1.0 Zn
Zn18 1.0000000000 0.9192904732 0.9192904732 0.9192904732  Biso 1.0 Zn
Zn19 1.0000000000 0.2421285803 0.9192904732 0.9192904732  Biso 1.0 Zn
Zn20 1.0000000000 0.9192904732 0.2421285803 0.9192904732  Biso 1.0 Zn
Zn21 1.0000000000 0.3307095268 0.3307095268 0.3307095268  Biso 1.0 Zn
Zn22 1.0000000000 0.3307095268 0.3307095268 0.0078714197  Biso 1.0 Zn
Zn23 1.0000000000 0.0078714197 0.3307095268 0.3307095268  Biso 1.0 Zn
Zn24 1.0000000000 0.3307095268 0.0078714197 0.3307095268  Biso 1.0 Zn
Zn25 1.0000000000 0.1250000000 0.1250000000 0.6250000000  Biso 1.0 Zn
Zn26 1.0000000000 0.1250000000 0.1250000000 0.1250000000  Biso 1.0 Zn
Zn27 1.0000000000 0.6250000000 0.1250000000 0.1250000000  Biso 1.0 Zn
Zn28 1.0000000000 0.1250000000 0.6250000000 0.1250000000  Biso 1.0 Zn
