# AFLOW.org Repositories
# C1Nb2P1   [HEX,HEX,hP8] (STD_PRIM doi:10
data_C1Nb2P1
_pd_phase_name C1Nb2P1
_cell_length_a  3.3117105906
_cell_length_b  3.3117105906
_cell_length_c  11.6566408727
_cell_angle_alpha  90.0000000000
_cell_angle_beta  90.0000000000
_cell_angle_gamma  120.0000000000
_symmetry_space_group_name_H-M  'P1'
_symmetry_Int_Tables_Number  1
loop_
_symmetry_equiv_pos_site_id
_symmetry_equiv_pos_as_xyz
  1  x,y,z
loop_
 _atom_site_label
 _atom_site_occupancy
 _atom_site_fract_x
 _atom_site_fract_y
 _atom_site_fract_z
 _atom_site_thermal_displace_type
 _atom_site_B_iso_or_equiv
 _atom_site_type_symbol
C1 1.0000000000 0.0000000000 0.0000000000 0.0000000000  Biso 1.0 C
C2 1.0000000000 0.0000000000 0.0000000000 0.5000000000  Biso 1.0 C
Nb3 1.0000000000 0.3333515220 0.6666757610 0.0998449946  Biso 1.0 Nb
Nb4 1.0000000000 0.6666484780 0.3333242390 0.5998449946  Biso 1.0 Nb
Nb5 1.0000000000 0.6666484780 0.3333242390 0.9001550054  Biso 1.0 Nb
Nb6 1.0000000000 0.3333515220 0.6666757610 0.4001550054  Biso 1.0 Nb
P7 1.0000000000 0.3333559877 0.6666779938 0.7500000000  Biso 1.0 P
P8 1.0000000000 0.6666440123 0.3333220062 0.2500000000  Biso 1.0 P
