# AFLOW.org Repositories
# C1Os2Zr4   [FCC,FCC,cF112] (STD_PRIM doi
data_C1Os2Zr4
_pd_phase_name C1Os2Zr4
_cell_length_a  8.8477929305
_cell_length_b  8.8477929305
_cell_length_c  8.8477929305
_cell_angle_alpha  60.0000000000
_cell_angle_beta  60.0000000000
_cell_angle_gamma  60.0000000000
_symmetry_space_group_name_H-M  'P1'
_symmetry_Int_Tables_Number  1
loop_
_symmetry_equiv_pos_site_id
_symmetry_equiv_pos_as_xyz
  1  x,y,z
loop_
 _atom_site_label
 _atom_site_occupancy
 _atom_site_fract_x
 _atom_site_fract_y
 _atom_site_fract_z
 _atom_site_thermal_displace_type
 _atom_site_B_iso_or_equiv
 _atom_site_type_symbol
C1 1.0000000000 0.5000000000 0.5000000000 0.5000000000  Biso 1.0 C
C2 1.0000000000 0.5000000000 0.5000000000 0.0000000000  Biso 1.0 C
C3 1.0000000000 0.0000000000 0.5000000000 0.5000000000  Biso 1.0 C
C4 1.0000000000 0.5000000000 0.0000000000 0.5000000000  Biso 1.0 C
Os5 1.0000000000 0.7902322908 0.7902322908 0.7902322908  Biso 1.0 Os
Os6 1.0000000000 0.7902322908 0.7902322908 0.1293031277  Biso 1.0 Os
Os7 1.0000000000 0.1293031277 0.7902322908 0.7902322908  Biso 1.0 Os
Os8 1.0000000000 0.7902322908 0.1293031277 0.7902322908  Biso 1.0 Os
Os9 1.0000000000 0.2097677092 0.2097677092 0.8706968723  Biso 1.0 Os
Os10 1.0000000000 0.2097677092 0.2097677092 0.2097677092  Biso 1.0 Os
Os11 1.0000000000 0.8706968723 0.2097677092 0.2097677092  Biso 1.0 Os
Os12 1.0000000000 0.2097677092 0.8706968723 0.2097677092  Biso 1.0 Os
Zr13 1.0000000000 0.0000000000 0.0000000000 0.0000000000  Biso 1.0 Zr
Zr14 1.0000000000 0.0000000000 0.0000000000 0.5000000000  Biso 1.0 Zr
Zr15 1.0000000000 0.5000000000 0.0000000000 0.0000000000  Biso 1.0 Zr
Zr16 1.0000000000 0.0000000000 0.5000000000 0.0000000000  Biso 1.0 Zr
Zr17 1.0000000000 0.5621552402 0.1878447598 0.5621552402  Biso 1.0 Zr
Zr18 1.0000000000 0.1878447598 0.5621552402 0.1878447598  Biso 1.0 Zr
Zr19 1.0000000000 0.1878447598 0.5621552402 0.5621552402  Biso 1.0 Zr
Zr20 1.0000000000 0.5621552402 0.1878447598 0.1878447598  Biso 1.0 Zr
Zr21 1.0000000000 0.5621552402 0.5621552402 0.1878447598  Biso 1.0 Zr
Zr22 1.0000000000 0.1878447598 0.1878447598 0.5621552402  Biso 1.0 Zr
Zr23 1.0000000000 0.4378447598 0.8121552402 0.8121552402  Biso 1.0 Zr
Zr24 1.0000000000 0.8121552402 0.4378447598 0.4378447598  Biso 1.0 Zr
Zr25 1.0000000000 0.8121552402 0.4378447598 0.8121552402  Biso 1.0 Zr
Zr26 1.0000000000 0.4378447598 0.8121552402 0.4378447598  Biso 1.0 Zr
Zr27 1.0000000000 0.4378447598 0.4378447598 0.8121552402  Biso 1.0 Zr
Zr28 1.0000000000 0.8121552402 0.8121552402 0.4378447598  Biso 1.0 Zr
