# AFLOW.org Repositories
# C1Si1   [HEX,HEX,hP36] (STD_PRIM doi:10.
data_C1Si1
_pd_phase_name C1Si1
_cell_length_a  3.0939039071
_cell_length_b  3.0939039071
_cell_length_c  45.5655123094
_cell_angle_alpha  90.0000000000
_cell_angle_beta  90.0000000000
_cell_angle_gamma  120.0000000000
_symmetry_space_group_name_H-M  'P1'
_symmetry_Int_Tables_Number  1
loop_
_symmetry_equiv_pos_site_id
_symmetry_equiv_pos_as_xyz
  1  x,y,z
loop_
 _atom_site_label
 _atom_site_occupancy
 _atom_site_fract_x
 _atom_site_fract_y
 _atom_site_fract_z
 _atom_site_thermal_displace_type
 _atom_site_B_iso_or_equiv
 _atom_site_type_symbol
C1 1.0000000000 0.0000000000 0.0000000000 0.0417609242  Biso 1.0 C
C2 1.0000000000 0.3333360540 0.6666680270 0.0971731290  Biso 1.0 C
C3 1.0000000000 0.6666673659 0.3333336830 0.1528727870  Biso 1.0 C
C4 1.0000000000 0.3333619719 0.6666809859 0.2082843603  Biso 1.0 C
C5 1.0000000000 0.0000000000 0.0000000000 0.2639833717  Biso 1.0 C
C6 1.0000000000 0.3333360696 0.6666680348 0.3193945578  Biso 1.0 C
C7 1.0000000000 0.6666673606 0.3333336803 0.3750948673  Biso 1.0 C
C8 1.0000000000 0.3333619825 0.6666809912 0.4305070747  Biso 1.0 C
C9 1.0000000000 0.0000000000 0.0000000000 0.4862057228  Biso 1.0 C
C10 1.0000000000 0.3333360490 0.6666680245 0.5416167361  Biso 1.0 C
C11 1.0000000000 0.6666673630 0.3333336815 0.5973151551  Biso 1.0 C
C12 1.0000000000 0.3333619441 0.6666809720 0.6527256302  Biso 1.0 C
C13 1.0000000000 0.0000000000 0.0000000000 0.7084241668  Biso 1.0 C
C14 1.0000000000 0.3333351622 0.6666675811 0.7638966532  Biso 1.0 C
C15 1.0000000000 0.6666381259 0.3333190629 0.8194017458  Biso 1.0 C
C16 1.0000000000 0.0000000000 0.0000000000 0.8750915770  Biso 1.0 C
C17 1.0000000000 0.6666646246 0.3333323123 0.9305662357  Biso 1.0 C
C18 1.0000000000 0.3333617202 0.6666808601 0.9860721187  Biso 1.0 C
Si19 1.0000000000 0.0000000000 0.0000000000 0.0000000000  Biso 1.0 Si
Si20 1.0000000000 0.3333610517 0.6666805258 0.0555291973  Biso 1.0 Si
Si21 1.0000000000 0.6666688273 0.3333344137 0.1110945640  Biso 1.0 Si
Si22 1.0000000000 0.3333349647 0.6666674823 0.1666387582  Biso 1.0 Si
Si23 1.0000000000 0.0000000000 0.0000000000 0.2222037156  Biso 1.0 Si
Si24 1.0000000000 0.3333610221 0.6666805111 0.2777481743  Biso 1.0 Si
Si25 1.0000000000 0.6666688254 0.3333344127 0.3333139276  Biso 1.0 Si
Si26 1.0000000000 0.3333349826 0.6666674913 0.3888595491  Biso 1.0 Si
Si27 1.0000000000 0.0000000000 0.0000000000 0.4444259921  Biso 1.0 Si
Si28 1.0000000000 0.3333610817 0.6666805409 0.4999731211  Biso 1.0 Si
Si29 1.0000000000 0.6666687946 0.3333343973 0.5555407218  Biso 1.0 Si
Si30 1.0000000000 0.3333349994 0.6666674997 0.6110875094  Biso 1.0 Si
Si31 1.0000000000 0.0000000000 0.0000000000 0.6666516525  Biso 1.0 Si
Si32 1.0000000000 0.3333607087 0.6666803543 0.7222249984  Biso 1.0 Si
Si33 1.0000000000 0.6666652390 0.3333326195 0.7777339462  Biso 1.0 Si
Si34 1.0000000000 0.0000000000 0.0000000000 0.8333166297  Biso 1.0 Si
Si35 1.0000000000 0.6666394832 0.3333197416 0.8888885632  Biso 1.0 Si
Si36 1.0000000000 0.3333349370 0.6666674685 0.9443983778  Biso 1.0 Si
