# AFLOW.org Repositories
# C1Si1   [HEX,HEX,hP16] (STD_PRIM doi:10.
data_C1Si1
_pd_phase_name C1Si1
_cell_length_a  3.0943848864
_cell_length_b  3.0943848864
_cell_length_c  20.2475663747
_cell_angle_alpha  90.0000000000
_cell_angle_beta  90.0000000000
_cell_angle_gamma  120.0000000000
_symmetry_space_group_name_H-M  'P1'
_symmetry_Int_Tables_Number  1
loop_
_symmetry_equiv_pos_site_id
_symmetry_equiv_pos_as_xyz
  1  x,y,z
loop_
 _atom_site_label
 _atom_site_occupancy
 _atom_site_fract_x
 _atom_site_fract_y
 _atom_site_fract_z
 _atom_site_thermal_displace_type
 _atom_site_B_iso_or_equiv
 _atom_site_type_symbol
C1 1.0000000000 0.0000000000 0.0000000000 0.0939158554  Biso 1.0 C
C2 1.0000000000 0.0000000000 0.0000000000 0.5939158554  Biso 1.0 C
C3 1.0000000000 0.6666639278 0.3333278556 0.3441035312  Biso 1.0 C
C4 1.0000000000 0.3333360722 0.6666721444 0.8441035312  Biso 1.0 C
C5 1.0000000000 0.6666657829 0.3333315658 0.7187537533  Biso 1.0 C
C6 1.0000000000 0.3333342171 0.6666684342 0.2187537533  Biso 1.0 C
C7 1.0000000000 0.6666774685 0.3333549369 0.9688855052  Biso 1.0 C
C8 1.0000000000 0.3333225315 0.6666450631 0.4688855052  Biso 1.0 C
Si9 1.0000000000 0.0000000000 0.0000000000 0.0000000000  Biso 1.0 Si
Si10 1.0000000000 0.0000000000 0.0000000000 0.5000861126  Biso 1.0 Si
Si11 1.0000000000 0.6666773608 0.3333547215 0.6250102344  Biso 1.0 Si
Si12 1.0000000000 0.3333226392 0.6666452785 0.1250102344  Biso 1.0 Si
Si13 1.0000000000 0.6666632689 0.3333265377 0.2500915386  Biso 1.0 Si
Si14 1.0000000000 0.3333367311 0.6666734623 0.7500915386  Biso 1.0 Si
Si15 1.0000000000 0.6666652434 0.3333304868 0.8751534693  Biso 1.0 Si
Si16 1.0000000000 0.3333347566 0.6666695132 0.3751534693  Biso 1.0 Si
