# AFLOW.org Repositories
# C1Si1   [HEX,HEX,hP38] (STD_PRIM doi:10.
data_C1Si1
_pd_phase_name C1Si1
_cell_length_a  3.0940058231
_cell_length_b  3.0940058231
_cell_length_c  48.0927593409
_cell_angle_alpha  90.0000000000
_cell_angle_beta  90.0000000000
_cell_angle_gamma  120.0000000000
_symmetry_space_group_name_H-M  'P1'
_symmetry_Int_Tables_Number  1
loop_
_symmetry_equiv_pos_site_id
_symmetry_equiv_pos_as_xyz
  1  x,y,z
loop_
 _atom_site_label
 _atom_site_occupancy
 _atom_site_fract_x
 _atom_site_fract_y
 _atom_site_fract_z
 _atom_site_thermal_displace_type
 _atom_site_B_iso_or_equiv
 _atom_site_type_symbol
C1 1.0000000000 0.0000000000 0.0000000000 0.0394304736  Biso 1.0 C
C2 1.0000000000 0.6666825240 0.3333504929 0.0922080404  Biso 1.0 C
C3 1.0000000000 0.0000000000 0.0000000000 0.1447011487  Biso 1.0 C
C4 1.0000000000 0.3333319994 0.6666494018 0.1974632438  Biso 1.0 C
C5 1.0000000000 0.0000000000 0.0000000000 0.2500106147  Biso 1.0 C
C6 1.0000000000 0.6666809958 0.3333333040 0.3025919496  Biso 1.0 C
C7 1.0000000000 0.3333491667 0.6666687994 0.3553482616  Biso 1.0 C
C8 1.0000000000 0.6666830049 0.3333500099 0.4078422183  Biso 1.0 C
C9 1.0000000000 0.0000000000 0.0000000000 0.4606139449  Biso 1.0 C
C10 1.0000000000 0.6666807481 0.3333331420 0.5131677667  Biso 1.0 C
C11 1.0000000000 0.3333329901 0.6666501647 0.5657508038  Biso 1.0 C
C12 1.0000000000 0.0000000000 0.0000000000 0.6185083660  Biso 1.0 C
C13 1.0000000000 0.3333475035 0.6666663341 0.6710011277  Biso 1.0 C
C14 1.0000000000 0.6666803657 0.3333312085 0.7237717014  Biso 1.0 C
C15 1.0000000000 0.3333333312 0.6666507721 0.7763265771  Biso 1.0 C
C16 1.0000000000 0.0000000000 0.0000000000 0.8289115731  Biso 1.0 C
C17 1.0000000000 0.6666825951 0.3333505857 0.8816699994  Biso 1.0 C
C18 1.0000000000 0.0000000000 0.0000000000 0.9341630812  Biso 1.0 C
C19 1.0000000000 0.3333320124 0.6666494735 0.9869321968  Biso 1.0 C
Si20 1.0000000000 0.0000000000 0.0000000000 0.0000000000  Biso 1.0 Si
Si21 1.0000000000 0.6666824002 0.3333504411 0.0526300882  Biso 1.0 Si
Si22 1.0000000000 0.0000000000 0.0000000000 0.1052668876  Biso 1.0 Si
Si23 1.0000000000 0.3333319347 0.6666495465 0.1578952614  Biso 1.0 Si
Si24 1.0000000000 0.0000000000 0.0000000000 0.2105291991  Biso 1.0 Si
Si25 1.0000000000 0.6666824247 0.3333490446 0.2631147754  Biso 1.0 Si
Si26 1.0000000000 0.3333494472 0.6666691757 0.3157746594  Biso 1.0 Si
Si27 1.0000000000 0.6666807204 0.3333329141 0.3683962206  Biso 1.0 Si
Si28 1.0000000000 0.0000000000 0.0000000000 0.4210357771  Biso 1.0 Si
Si29 1.0000000000 0.6666824315 0.3333492128 0.4736865129  Biso 1.0 Si
Si30 1.0000000000 0.3333476827 0.6666670548 0.5262740912  Biso 1.0 Si
Si31 1.0000000000 0.0000000000 0.0000000000 0.5789348890  Biso 1.0 Si
Si32 1.0000000000 0.3333331800 0.6666506269 0.6315554042  Biso 1.0 Si
Si33 1.0000000000 0.6666802564 0.3333308735 0.6841936595  Biso 1.0 Si
Si34 1.0000000000 0.3333479162 0.6666673476 0.7368420279  Biso 1.0 Si
Si35 1.0000000000 0.0000000000 0.0000000000 0.7894287423  Biso 1.0 Si
Si36 1.0000000000 0.6666824127 0.3333505086 0.8420910272  Biso 1.0 Si
Si37 1.0000000000 0.0000000000 0.0000000000 0.8947123384  Biso 1.0 Si
Si38 1.0000000000 0.3333319343 0.6666495496 0.9473518173  Biso 1.0 Si
