# AFLOW.org Repositories
# C2Er2Re1   [ORC,ORC,oP20] (STD_PRIM doi:
data_C2Er2Re1
_pd_phase_name C2Er2Re1
_cell_length_a  5.0639962873
_cell_length_b  6.5468161458
_cell_length_c  9.7861290606
_cell_angle_alpha  90.0000000000
_cell_angle_beta  90.0000000000
_cell_angle_gamma  90.0000000000
_symmetry_space_group_name_H-M  'P1'
_symmetry_Int_Tables_Number  1
loop_
_symmetry_equiv_pos_site_id
_symmetry_equiv_pos_as_xyz
  1  x,y,z
loop_
 _atom_site_label
 _atom_site_occupancy
 _atom_site_fract_x
 _atom_site_fract_y
 _atom_site_fract_z
 _atom_site_thermal_displace_type
 _atom_site_B_iso_or_equiv
 _atom_site_type_symbol
C1 1.0000000000 0.2500000000 0.0487994642 0.7409751500  Biso 1.0 C
C2 1.0000000000 0.7500000000 0.4512005358 0.2409751500  Biso 1.0 C
C3 1.0000000000 0.7500000000 0.9512005358 0.2590248500  Biso 1.0 C
C4 1.0000000000 0.2500000000 0.5487994642 0.7590248500  Biso 1.0 C
C5 1.0000000000 0.2500000000 0.6749121307 0.4473234470  Biso 1.0 C
C6 1.0000000000 0.7500000000 0.8250878693 0.9473234470  Biso 1.0 C
C7 1.0000000000 0.7500000000 0.3250878693 0.5526765530  Biso 1.0 C
C8 1.0000000000 0.2500000000 0.1749121307 0.0526765530  Biso 1.0 C
Er9 1.0000000000 0.2500000000 0.8215107044 0.9427977021  Biso 1.0 Er
Er10 1.0000000000 0.7500000000 0.6784892956 0.4427977021  Biso 1.0 Er
Er11 1.0000000000 0.7500000000 0.1784892956 0.0572022979  Biso 1.0 Er
Er12 1.0000000000 0.2500000000 0.3215107044 0.5572022979  Biso 1.0 Er
Er13 1.0000000000 0.2500000000 0.4661339621 0.2166251778  Biso 1.0 Er
Er14 1.0000000000 0.7500000000 0.0338660379 0.7166251778  Biso 1.0 Er
Er15 1.0000000000 0.7500000000 0.5338660379 0.7833748222  Biso 1.0 Er
Er16 1.0000000000 0.2500000000 0.9661339621 0.2833748222  Biso 1.0 Er
Re17 1.0000000000 0.2500000000 0.2814053914 0.8683498544  Biso 1.0 Re
Re18 1.0000000000 0.7500000000 0.2185946086 0.3683498544  Biso 1.0 Re
Re19 1.0000000000 0.7500000000 0.7185946086 0.1316501456  Biso 1.0 Re
Re20 1.0000000000 0.2500000000 0.7814053914 0.6316501456  Biso 1.0 Re
