# AFLOW.org Repositories
# C2Ho1Ni1   [ORCC,ORCC,oS8] (STD_PRIM doi
data_C2Ho1Ni1
_pd_phase_name C2Ho1Ni1
_cell_length_a  3.7517555371
_cell_length_b  3.7517555371
_cell_length_c  3.5392763607
_cell_angle_alpha  90.0000000000
_cell_angle_beta  90.0000000000
_cell_angle_gamma  106.3721944077
_symmetry_space_group_name_H-M  'P1'
_symmetry_Int_Tables_Number  1
loop_
_symmetry_equiv_pos_site_id
_symmetry_equiv_pos_as_xyz
  1  x,y,z
loop_
 _atom_site_label
 _atom_site_occupancy
 _atom_site_fract_x
 _atom_site_fract_y
 _atom_site_fract_z
 _atom_site_thermal_displace_type
 _atom_site_B_iso_or_equiv
 _atom_site_type_symbol
C1 1.0000000000 0.5443477898 0.1495872186 0.5000000000  Biso 1.0 C
C2 1.0000000000 0.8504127814 0.4556522102 0.5000000000  Biso 1.0 C
Ho3 1.0000000000 0.9989568957 0.0010431043 0.0000000000  Biso 1.0 Ho
Ni4 1.0000000000 0.3902825331 0.6097174669 0.5000000000  Biso 1.0 Ni
