# AFLOW.org Repositories
# C3N4   [HEX,HEX,hP14] (STD_PRIM doi:10.1
data_C3N4
_pd_phase_name C3N4
_cell_length_a  6.4497183586
_cell_length_b  6.4497183586
_cell_length_c  2.4224632785
_cell_angle_alpha  90.0000000000
_cell_angle_beta  90.0000000000
_cell_angle_gamma  120.0000000000
_symmetry_space_group_name_H-M  'P1'
_symmetry_Int_Tables_Number  1
loop_
_symmetry_equiv_pos_site_id
_symmetry_equiv_pos_as_xyz
  1  x,y,z
loop_
 _atom_site_label
 _atom_site_occupancy
 _atom_site_fract_x
 _atom_site_fract_y
 _atom_site_fract_z
 _atom_site_thermal_displace_type
 _atom_site_B_iso_or_equiv
 _atom_site_type_symbol
C1 1.0000000000 0.4051601940 0.2272476638 0.2500000000  Biso 1.0 C
C2 1.0000000000 0.7727602406 0.1779284433 0.2500000000  Biso 1.0 C
C3 1.0000000000 0.8220966629 0.5948333459 0.2500000000  Biso 1.0 C
C4 1.0000000000 0.5948398060 0.7727523362 0.7500000000  Biso 1.0 C
C5 1.0000000000 0.2272397594 0.8220715567 0.7500000000  Biso 1.0 C
C6 1.0000000000 0.1779033371 0.4051666541 0.7500000000  Biso 1.0 C
N7 1.0000000000 0.3333556646 0.6666775056 0.7500000000  Biso 1.0 N
N8 1.0000000000 0.6666443354 0.3333224944 0.2500000000  Biso 1.0 N
N9 1.0000000000 0.2969984146 0.9670127456 0.2500000000  Biso 1.0 N
N10 1.0000000000 0.0329985753 0.3299977882 0.2500000000  Biso 1.0 N
N11 1.0000000000 0.6700115338 0.7030113062 0.2500000000  Biso 1.0 N
N12 1.0000000000 0.7030015854 0.0329872544 0.7500000000  Biso 1.0 N
N13 1.0000000000 0.9670014247 0.6700022118 0.7500000000  Biso 1.0 N
N14 1.0000000000 0.3299884662 0.2969886938 0.7500000000  Biso 1.0 N
