# AFLOW.org Repositories
# C3Yb2   [BCC,BCC,cI40] (STD_PRIM doi:10.
data_C3Yb2
_pd_phase_name C3Yb2
_cell_length_a  7.2681863398
_cell_length_b  7.2681863398
_cell_length_c  7.2681863398
_cell_angle_alpha  109.4712206345
_cell_angle_beta  109.4712206345
_cell_angle_gamma  109.4712206345
_symmetry_space_group_name_H-M  'P1'
_symmetry_Int_Tables_Number  1
loop_
_symmetry_equiv_pos_site_id
_symmetry_equiv_pos_as_xyz
  1  x,y,z
loop_
 _atom_site_label
 _atom_site_occupancy
 _atom_site_fract_x
 _atom_site_fract_y
 _atom_site_fract_z
 _atom_site_thermal_displace_type
 _atom_site_B_iso_or_equiv
 _atom_site_type_symbol
C1 1.0000000000 0.2975305366 0.0475305366 0.7500000000  Biso 1.0 C
C2 1.0000000000 0.2024694634 0.4524694634 0.2500000000  Biso 1.0 C
C3 1.0000000000 0.5475305366 0.2500000000 0.2975305366  Biso 1.0 C
C4 1.0000000000 0.9524694634 0.7500000000 0.2024694634  Biso 1.0 C
C5 1.0000000000 0.2500000000 0.7024694634 0.9524694634  Biso 1.0 C
C6 1.0000000000 0.7500000000 0.7975305366 0.5475305366  Biso 1.0 C
C7 1.0000000000 0.7975305366 0.7500000000 0.0475305366  Biso 1.0 C
C8 1.0000000000 0.7024694634 0.2500000000 0.4524694634  Biso 1.0 C
C9 1.0000000000 0.0475305366 0.2975305366 0.2500000000  Biso 1.0 C
C10 1.0000000000 0.4524694634 0.2024694634 0.7500000000  Biso 1.0 C
C11 1.0000000000 0.7500000000 0.9524694634 0.7024694634  Biso 1.0 C
C12 1.0000000000 0.2500000000 0.5475305366 0.7975305366  Biso 1.0 C
Yb13 1.0000000000 0.1126018346 0.0000000000 0.0000000000  Biso 1.0 Yb
Yb14 1.0000000000 0.3873981654 0.8873981654 0.3873981654  Biso 1.0 Yb
Yb15 1.0000000000 0.5000000000 0.5000000000 0.1126018346  Biso 1.0 Yb
Yb16 1.0000000000 0.0000000000 0.6126018346 0.5000000000  Biso 1.0 Yb
Yb17 1.0000000000 0.6126018346 0.0000000000 0.0000000000  Biso 1.0 Yb
Yb18 1.0000000000 0.8873981654 0.3873981654 0.8873981654  Biso 1.0 Yb
Yb19 1.0000000000 0.0000000000 0.1126018346 0.5000000000  Biso 1.0 Yb
Yb20 1.0000000000 0.5000000000 0.5000000000 0.6126018346  Biso 1.0 Yb
