# AFLOW.org Repositories
# C7V8   [CUB,CUB,cP60] (STD_PRIM doi:10.1
data_C7V8
_pd_phase_name C7V8
_cell_length_a  8.3882000377
_cell_length_b  8.3882000377
_cell_length_c  8.3882000377
_cell_angle_alpha  90.0000000000
_cell_angle_beta  90.0000000000
_cell_angle_gamma  90.0000000000
_symmetry_space_group_name_H-M  'P1'
_symmetry_Int_Tables_Number  1
loop_
_symmetry_equiv_pos_site_id
_symmetry_equiv_pos_as_xyz
  1  x,y,z
loop_
 _atom_site_label
 _atom_site_occupancy
 _atom_site_fract_x
 _atom_site_fract_y
 _atom_site_fract_z
 _atom_site_thermal_displace_type
 _atom_site_B_iso_or_equiv
 _atom_site_type_symbol
C1 1.0000000000 0.8750000000 0.8750000000 0.1250000000  Biso 1.0 C
C2 1.0000000000 0.6250000000 0.1250000000 0.6250000000  Biso 1.0 C
C3 1.0000000000 0.1250000000 0.3750000000 0.3750000000  Biso 1.0 C
C4 1.0000000000 0.3750000000 0.6250000000 0.8750000000  Biso 1.0 C
C5 1.0000000000 0.8750000000 0.3711035383 0.6211035383  Biso 1.0 C
C6 1.0000000000 0.6250000000 0.6288964617 0.1211035383  Biso 1.0 C
C7 1.0000000000 0.1250000000 0.8711035383 0.8788964617  Biso 1.0 C
C8 1.0000000000 0.3750000000 0.1288964617 0.3788964617  Biso 1.0 C
C9 1.0000000000 0.3788964617 0.8750000000 0.6288964617  Biso 1.0 C
C10 1.0000000000 0.8788964617 0.6250000000 0.3711035383  Biso 1.0 C
C11 1.0000000000 0.1211035383 0.1250000000 0.1288964617  Biso 1.0 C
C12 1.0000000000 0.6211035383 0.3750000000 0.8711035383  Biso 1.0 C
C13 1.0000000000 0.3711035383 0.3788964617 0.1250000000  Biso 1.0 C
C14 1.0000000000 0.6288964617 0.8788964617 0.3750000000  Biso 1.0 C
C15 1.0000000000 0.8711035383 0.1211035383 0.8750000000  Biso 1.0 C
C16 1.0000000000 0.1288964617 0.6211035383 0.6250000000  Biso 1.0 C
C17 1.0000000000 0.8750000000 0.6260654533 0.8760654533  Biso 1.0 C
C18 1.0000000000 0.6250000000 0.3739345467 0.3760654533  Biso 1.0 C
C19 1.0000000000 0.1250000000 0.1260654533 0.6239345467  Biso 1.0 C
C20 1.0000000000 0.3750000000 0.8739345467 0.1239345467  Biso 1.0 C
C21 1.0000000000 0.1239345467 0.8750000000 0.3739345467  Biso 1.0 C
C22 1.0000000000 0.6239345467 0.6250000000 0.6260654533  Biso 1.0 C
C23 1.0000000000 0.3760654533 0.1250000000 0.8739345467  Biso 1.0 C
C24 1.0000000000 0.8760654533 0.3750000000 0.1260654533  Biso 1.0 C
C25 1.0000000000 0.6260654533 0.1239345467 0.1250000000  Biso 1.0 C
C26 1.0000000000 0.3739345467 0.6239345467 0.3750000000  Biso 1.0 C
C27 1.0000000000 0.1260654533 0.3760654533 0.8750000000  Biso 1.0 C
C28 1.0000000000 0.8739345467 0.8760654533 0.6250000000  Biso 1.0 C
V29 1.0000000000 0.6218726727 0.6218726727 0.3781273273  Biso 1.0 V
V30 1.0000000000 0.8781273273 0.3781273273 0.8781273273  Biso 1.0 V
V31 1.0000000000 0.3781273273 0.1218726727 0.1218726727  Biso 1.0 V
V32 1.0000000000 0.1218726727 0.8781273273 0.6218726727  Biso 1.0 V
V33 1.0000000000 0.3718726727 0.8718726727 0.3718726727  Biso 1.0 V
V34 1.0000000000 0.1281273273 0.1281273273 0.8718726727  Biso 1.0 V
V35 1.0000000000 0.8718726727 0.6281273273 0.6281273273  Biso 1.0 V
V36 1.0000000000 0.6281273273 0.3718726727 0.1281273273  Biso 1.0 V
V37 1.0000000000 0.8574707926 0.6275953587 0.1193258895  Biso 1.0 V
V38 1.0000000000 0.6425292074 0.3724046413 0.6193258895  Biso 1.0 V
V39 1.0000000000 0.1425292074 0.1275953587 0.3806741105  Biso 1.0 V
V40 1.0000000000 0.3574707926 0.8724046413 0.8806741105  Biso 1.0 V
V41 1.0000000000 0.8806741105 0.8574707926 0.3724046413  Biso 1.0 V
V42 1.0000000000 0.3806741105 0.6425292074 0.6275953587  Biso 1.0 V
V43 1.0000000000 0.6193258895 0.1425292074 0.8724046413  Biso 1.0 V
V44 1.0000000000 0.1193258895 0.3574707926 0.1275953587  Biso 1.0 V
V45 1.0000000000 0.6275953587 0.8806741105 0.1425292074  Biso 1.0 V
V46 1.0000000000 0.3724046413 0.3806741105 0.3574707926  Biso 1.0 V
V47 1.0000000000 0.1275953587 0.6193258895 0.8574707926  Biso 1.0 V
V48 1.0000000000 0.8724046413 0.1193258895 0.6425292074  Biso 1.0 V
V49 1.0000000000 0.3775953587 0.1074707926 0.6306741105  Biso 1.0 V
V50 1.0000000000 0.1224046413 0.8925292074 0.1306741105  Biso 1.0 V
V51 1.0000000000 0.8775953587 0.3925292074 0.3693258895  Biso 1.0 V
V52 1.0000000000 0.6224046413 0.6074707926 0.8693258895  Biso 1.0 V
V53 1.0000000000 0.6074707926 0.1306741105 0.3775953587  Biso 1.0 V
V54 1.0000000000 0.3925292074 0.6306741105 0.1224046413  Biso 1.0 V
V55 1.0000000000 0.8925292074 0.8693258895 0.8775953587  Biso 1.0 V
V56 1.0000000000 0.1074707926 0.3693258895 0.6224046413  Biso 1.0 V
V57 1.0000000000 0.6306741105 0.8775953587 0.6074707926  Biso 1.0 V
V58 1.0000000000 0.1306741105 0.6224046413 0.3925292074  Biso 1.0 V
V59 1.0000000000 0.3693258895 0.3775953587 0.8925292074  Biso 1.0 V
V60 1.0000000000 0.8693258895 0.1224046413 0.1074707926  Biso 1.0 V
