# AFLOW.org Repositories
# Ca1Ge2   [HEX,HEX,hP6] (STD_PRIM doi:10.
data_Ca1Ge2
_pd_phase_name Ca1Ge2
_cell_length_a  4.0381604777
_cell_length_b  4.0381604777
_cell_length_c  10.1635173733
_cell_angle_alpha  90.0000000000
_cell_angle_beta  90.0000000000
_cell_angle_gamma  120.0000000000
_symmetry_space_group_name_H-M  'P1'
_symmetry_Int_Tables_Number  1
loop_
_symmetry_equiv_pos_site_id
_symmetry_equiv_pos_as_xyz
  1  x,y,z
loop_
 _atom_site_label
 _atom_site_occupancy
 _atom_site_fract_x
 _atom_site_fract_y
 _atom_site_fract_z
 _atom_site_thermal_displace_type
 _atom_site_B_iso_or_equiv
 _atom_site_type_symbol
Ca1 1.0000000000 0.3333837275 0.6666918637 0.2922233100  Biso 1.0 Ca
Ca2 1.0000000000 0.6666159011 0.3333079505 0.7922683790  Biso 1.0 Ca
Ge3 1.0000000000 0.3333698721 0.6666849361 0.6057527208  Biso 1.0 Ge
Ge4 1.0000000000 0.6666305905 0.3333152953 0.1059869618  Biso 1.0 Ge
Ge5 1.0000000000 0.0000000000 0.0000000000 0.0000000000  Biso 1.0 Ge
Ge6 1.0000000000 0.0000000000 0.0000000000 0.4989794294  Biso 1.0 Ge
