# AFLOW.org Repositories
# Ca1Ga2P2   [HEX,HEX,hP10] (STD_PRIM doi:
data_Ca1Ga2P2
_pd_phase_name Ca1Ga2P2
_cell_length_a  3.8608980320
_cell_length_b  3.8608980320
_cell_length_c  16.5345906870
_cell_angle_alpha  90.0000000000
_cell_angle_beta  90.0000000000
_cell_angle_gamma  120.0000000000
_symmetry_space_group_name_H-M  'P1'
_symmetry_Int_Tables_Number  1
loop_
_symmetry_equiv_pos_site_id
_symmetry_equiv_pos_as_xyz
  1  x,y,z
loop_
 _atom_site_label
 _atom_site_occupancy
 _atom_site_fract_x
 _atom_site_fract_y
 _atom_site_fract_z
 _atom_site_thermal_displace_type
 _atom_site_B_iso_or_equiv
 _atom_site_type_symbol
Ca1 1.0000000000 0.0000000000 0.0000000000 0.0000000000  Biso 1.0 Ca
Ca2 1.0000000000 0.0000000000 0.0000000000 0.5000000000  Biso 1.0 Ca
Ga3 1.0000000000 0.3333541238 0.6666770619 0.1751917508  Biso 1.0 Ga
Ga4 1.0000000000 0.6666458762 0.3333229381 0.6751917508  Biso 1.0 Ga
Ga5 1.0000000000 0.6666458762 0.3333229381 0.8248082492  Biso 1.0 Ga
Ga6 1.0000000000 0.3333541238 0.6666770619 0.3248082492  Biso 1.0 Ga
P7 1.0000000000 0.3333416711 0.6666708355 0.6146647705  Biso 1.0 P
P8 1.0000000000 0.6666583289 0.3333291645 0.1146647705  Biso 1.0 P
P9 1.0000000000 0.6666583289 0.3333291645 0.3853352295  Biso 1.0 P
P10 1.0000000000 0.3333416711 0.6666708355 0.8853352295  Biso 1.0 P
