# AFLOW.org Repositories
# Ca1In2O4   [BCT,BCT2,tI28] (STD_PRIM doi
data_Ca1In2O4
_pd_phase_name Ca1In2O4
_cell_length_a  6.6175431050
_cell_length_b  6.6175431050
_cell_length_c  6.6175431050
_cell_angle_alpha  120.2036512390
_cell_angle_beta  120.2036512390
_cell_angle_gamma  89.6476261555
_symmetry_space_group_name_H-M  'P1'
_symmetry_Int_Tables_Number  1
loop_
_symmetry_equiv_pos_site_id
_symmetry_equiv_pos_as_xyz
  1  x,y,z
loop_
 _atom_site_label
 _atom_site_occupancy
 _atom_site_fract_x
 _atom_site_fract_y
 _atom_site_fract_z
 _atom_site_thermal_displace_type
 _atom_site_B_iso_or_equiv
 _atom_site_type_symbol
Ca1 1.0000000000 0.0000000000 0.0000000000 0.0000000000  Biso 1.0 Ca
Ca2 1.0000000000 0.2500000000 0.7500000000 0.5000000000  Biso 1.0 Ca
In3 1.0000000000 0.6250000000 0.8750000000 0.2500000000  Biso 1.0 In
In4 1.0000000000 0.6250000000 0.3750000000 0.7500000000  Biso 1.0 In
In5 1.0000000000 0.1250000000 0.3750000000 0.7500000000  Biso 1.0 In
In6 1.0000000000 0.6250000000 0.3750000000 0.2500000000  Biso 1.0 In
O7 1.0000000000 0.3897347238 0.1666710726 0.7769363488  Biso 1.0 O
O8 1.0000000000 0.3897347238 0.6127983750 0.2230636512  Biso 1.0 O
O9 1.0000000000 0.4166710726 0.1397347238 0.2769363488  Biso 1.0 O
O10 1.0000000000 0.8627983750 0.1397347238 0.7230636512  Biso 1.0 O
O11 1.0000000000 0.8602652762 0.1372016250 0.2769363488  Biso 1.0 O
O12 1.0000000000 0.8602652762 0.5833289274 0.7230636512  Biso 1.0 O
O13 1.0000000000 0.8333289274 0.6102652762 0.2230636512  Biso 1.0 O
O14 1.0000000000 0.3872016250 0.6102652762 0.7769363488  Biso 1.0 O
