# AFLOW.org Repositories
# Ca1O3Si1   [BCC,BCC,cI40] (STD_PRIM doi:
data_Ca1O3Si1
_pd_phase_name Ca1O3Si1
_cell_length_a  6.2531889522
_cell_length_b  6.2531889522
_cell_length_c  6.2531889522
_cell_angle_alpha  109.4712206345
_cell_angle_beta  109.4712206345
_cell_angle_gamma  109.4712206345
_symmetry_space_group_name_H-M  'P1'
_symmetry_Int_Tables_Number  1
loop_
_symmetry_equiv_pos_site_id
_symmetry_equiv_pos_as_xyz
  1  x,y,z
loop_
 _atom_site_label
 _atom_site_occupancy
 _atom_site_fract_x
 _atom_site_fract_y
 _atom_site_fract_z
 _atom_site_thermal_displace_type
 _atom_site_B_iso_or_equiv
 _atom_site_type_symbol
Ca1 1.0000000000 0.0000000000 0.0000000000 0.0000000000  Biso 1.0 Ca
Ca2 1.0000000000 0.5000000000 0.5000000000 0.0000000000  Biso 1.0 Ca
Ca3 1.0000000000 0.5000000000 0.0000000000 0.5000000000  Biso 1.0 Ca
Ca4 1.0000000000 0.0000000000 0.5000000000 0.5000000000  Biso 1.0 Ca
O5 1.0000000000 0.2617779041 0.2377106211 0.4994885252  Biso 1.0 O
O6 1.0000000000 0.7382220959 0.2377106211 0.9759327170  Biso 1.0 O
O7 1.0000000000 0.2617779041 0.7622893789 0.0240672830  Biso 1.0 O
O8 1.0000000000 0.7382220959 0.7622893789 0.5005114748  Biso 1.0 O
O9 1.0000000000 0.7622893789 0.0240672830 0.2617779041  Biso 1.0 O
O10 1.0000000000 0.7622893789 0.5005114748 0.7382220959  Biso 1.0 O
O11 1.0000000000 0.2377106211 0.4994885252 0.2617779041  Biso 1.0 O
O12 1.0000000000 0.2377106211 0.9759327170 0.7382220959  Biso 1.0 O
O13 1.0000000000 0.9759327170 0.7382220959 0.2377106211  Biso 1.0 O
O14 1.0000000000 0.4994885252 0.2617779041 0.2377106211  Biso 1.0 O
O15 1.0000000000 0.5005114748 0.7382220959 0.7622893789  Biso 1.0 O
O16 1.0000000000 0.0240672830 0.2617779041 0.7622893789  Biso 1.0 O
Si17 1.0000000000 0.0000000000 0.0000000000 0.5000000000  Biso 1.0 Si
Si18 1.0000000000 0.0000000000 0.5000000000 0.0000000000  Biso 1.0 Si
Si19 1.0000000000 0.5000000000 0.0000000000 0.0000000000  Biso 1.0 Si
Si20 1.0000000000 0.5000000000 0.5000000000 0.5000000000  Biso 1.0 Si
