# AFLOW.org Repositories
# Ca1O3Ru1   [ORC,ORC,oP20] (STD_PRIM doi:
data_Ca1O3Ru1
_pd_phase_name Ca1O3Ru1
_cell_length_a  5.3949222267
_cell_length_b  5.6677746890
_cell_length_c  7.7300347119
_cell_angle_alpha  90.0000000000
_cell_angle_beta  90.0000000000
_cell_angle_gamma  90.0000000000
_symmetry_space_group_name_H-M  'P1'
_symmetry_Int_Tables_Number  1
loop_
_symmetry_equiv_pos_site_id
_symmetry_equiv_pos_as_xyz
  1  x,y,z
loop_
 _atom_site_label
 _atom_site_occupancy
 _atom_site_fract_x
 _atom_site_fract_y
 _atom_site_fract_z
 _atom_site_thermal_displace_type
 _atom_site_B_iso_or_equiv
 _atom_site_type_symbol
Ca1 1.0000000000 0.9804124354 0.4402085005 0.7500000000  Biso 1.0 Ca
Ca2 1.0000000000 0.4804124354 0.0597914995 0.2500000000  Biso 1.0 Ca
Ca3 1.0000000000 0.0195875646 0.5597914995 0.2500000000  Biso 1.0 Ca
Ca4 1.0000000000 0.5195875646 0.9402085005 0.7500000000  Biso 1.0 Ca
O5 1.0000000000 0.8962128231 0.9650911350 0.2500000000  Biso 1.0 O
O6 1.0000000000 0.3962128231 0.5349088650 0.7500000000  Biso 1.0 O
O7 1.0000000000 0.1037871769 0.0349088650 0.7500000000  Biso 1.0 O
O8 1.0000000000 0.6037871769 0.4650911350 0.2500000000  Biso 1.0 O
O9 1.0000000000 0.6935615424 0.2013445482 0.9500295699  Biso 1.0 O
O10 1.0000000000 0.1935615424 0.2986554518 0.0499704301  Biso 1.0 O
O11 1.0000000000 0.3064384576 0.7986554518 0.4500295699  Biso 1.0 O
O12 1.0000000000 0.8064384576 0.7013445482 0.5499704301  Biso 1.0 O
O13 1.0000000000 0.3064384576 0.7986554518 0.0499704301  Biso 1.0 O
O14 1.0000000000 0.8064384576 0.7013445482 0.9500295699  Biso 1.0 O
O15 1.0000000000 0.6935615424 0.2013445482 0.5499704301  Biso 1.0 O
O16 1.0000000000 0.1935615424 0.2986554518 0.4500295699  Biso 1.0 O
Ru17 1.0000000000 0.0000000000 0.0000000000 0.0000000000  Biso 1.0 Ru
Ru18 1.0000000000 0.5000000000 0.5000000000 0.0000000000  Biso 1.0 Ru
Ru19 1.0000000000 0.0000000000 0.0000000000 0.5000000000  Biso 1.0 Ru
Ru20 1.0000000000 0.5000000000 0.5000000000 0.5000000000  Biso 1.0 Ru
