# AFLOW.org Repositories
# Ca1O3Ti1   [BCT,BCT2,tI20] (STD_PRIM doi
data_Ca1O3Ti1
_pd_phase_name Ca1O3Ti1
_cell_length_a  5.5186444466
_cell_length_b  5.5186444466
_cell_length_c  5.5186444466
_cell_angle_alpha  120.7662507851
_cell_angle_beta  120.7662507851
_cell_angle_gamma  88.6778606255
_symmetry_space_group_name_H-M  'P1'
_symmetry_Int_Tables_Number  1
loop_
_symmetry_equiv_pos_site_id
_symmetry_equiv_pos_as_xyz
  1  x,y,z
loop_
 _atom_site_label
 _atom_site_occupancy
 _atom_site_fract_x
 _atom_site_fract_y
 _atom_site_fract_z
 _atom_site_thermal_displace_type
 _atom_site_B_iso_or_equiv
 _atom_site_type_symbol
Ca1 1.0000000000 0.7500187697 0.2500187697 0.5000000000  Biso 1.0 Ca
Ca2 1.0000000000 0.2499812303 0.7499812303 0.5000000000  Biso 1.0 Ca
O3 1.0000000000 0.2500000000 0.2500000000 0.0000000000  Biso 1.0 O
O4 1.0000000000 0.7500000000 0.7500000000 0.0000000000  Biso 1.0 O
O5 1.0000000000 0.6887576494 0.1887576494 0.8775152989  Biso 1.0 O
O6 1.0000000000 0.3112423506 0.8112423506 0.1224847011  Biso 1.0 O
O7 1.0000000000 0.1887103856 0.3112896144 0.5000000000  Biso 1.0 O
O8 1.0000000000 0.8112896144 0.6887103856 0.5000000000  Biso 1.0 O
Ti9 1.0000000000 0.0000000000 0.0000000000 0.0000000000  Biso 1.0 Ti
Ti10 1.0000000000 0.5000000000 0.5000000000 0.0000000000  Biso 1.0 Ti
