# AFLOW.org Repositories
# Ca1Pt1Sn1   [ORC,ORC,oP12] (STD_PRIM doi
data_Ca1Pt1Sn1
_pd_phase_name Ca1Pt1Sn1
_cell_length_a  4.6567259593
_cell_length_b  7.3681694912
_cell_length_c  8.0782673530
_cell_angle_alpha  90.0000000000
_cell_angle_beta  90.0000000000
_cell_angle_gamma  90.0000000000
_symmetry_space_group_name_H-M  'P1'
_symmetry_Int_Tables_Number  1
loop_
_symmetry_equiv_pos_site_id
_symmetry_equiv_pos_as_xyz
  1  x,y,z
loop_
 _atom_site_label
 _atom_site_occupancy
 _atom_site_fract_x
 _atom_site_fract_y
 _atom_site_fract_z
 _atom_site_thermal_displace_type
 _atom_site_B_iso_or_equiv
 _atom_site_type_symbol
Ca1 1.0000000000 0.2500000000 0.9813918867 0.3103839989  Biso 1.0 Ca
Ca2 1.0000000000 0.7500000000 0.5186081133 0.8103839989  Biso 1.0 Ca
Ca3 1.0000000000 0.7500000000 0.0186081133 0.6896160011  Biso 1.0 Ca
Ca4 1.0000000000 0.2500000000 0.4813918867 0.1896160011  Biso 1.0 Ca
Pt5 1.0000000000 0.2500000000 0.2123504162 0.8988929331  Biso 1.0 Pt
Pt6 1.0000000000 0.7500000000 0.2876495838 0.3988929331  Biso 1.0 Pt
Pt7 1.0000000000 0.7500000000 0.7876495838 0.1011070669  Biso 1.0 Pt
Pt8 1.0000000000 0.2500000000 0.7123504162 0.6011070669  Biso 1.0 Pt
Sn9 1.0000000000 0.2500000000 0.3289639123 0.5771325443  Biso 1.0 Sn
Sn10 1.0000000000 0.7500000000 0.1710360877 0.0771325443  Biso 1.0 Sn
Sn11 1.0000000000 0.7500000000 0.6710360877 0.4228674557  Biso 1.0 Sn
Sn12 1.0000000000 0.2500000000 0.8289639123 0.9228674557  Biso 1.0 Sn
