# AFLOW.org Repositories
# Ca2Ge2Ni3   [ORC,ORC,oP14] (STD_PRIM doi
data_Ca2Ge2Ni3
_pd_phase_name Ca2Ge2Ni3
_cell_length_a  4.0390083458
_cell_length_b  6.9078509229
_cell_length_c  9.1573297467
_cell_angle_alpha  90.0000000000
_cell_angle_beta  90.0000000000
_cell_angle_gamma  90.0000000000
_symmetry_space_group_name_H-M  'P1'
_symmetry_Int_Tables_Number  1
loop_
_symmetry_equiv_pos_site_id
_symmetry_equiv_pos_as_xyz
  1  x,y,z
loop_
 _atom_site_label
 _atom_site_occupancy
 _atom_site_fract_x
 _atom_site_fract_y
 _atom_site_fract_z
 _atom_site_thermal_displace_type
 _atom_site_B_iso_or_equiv
 _atom_site_type_symbol
Ca1 1.0000000000 0.0000000000 0.1637101590 0.2500000000  Biso 1.0 Ca
Ca2 1.0000000000 0.0000000000 0.8362898410 0.7500000000  Biso 1.0 Ca
Ca3 1.0000000000 0.5000000000 0.5000000000 0.5000000000  Biso 1.0 Ca
Ca4 1.0000000000 0.5000000000 0.5000000000 0.0000000000  Biso 1.0 Ca
Ge5 1.0000000000 0.0000000000 0.6003111676 0.2500000000  Biso 1.0 Ge
Ge6 1.0000000000 0.0000000000 0.3996888324 0.7500000000  Biso 1.0 Ge
Ge7 1.0000000000 0.5000000000 0.0000000000 0.5000000000  Biso 1.0 Ge
Ge8 1.0000000000 0.5000000000 0.0000000000 0.0000000000  Biso 1.0 Ge
Ni9 1.0000000000 0.5000000000 0.8130511224 0.2500000000  Biso 1.0 Ni
Ni10 1.0000000000 0.5000000000 0.1869488776 0.7500000000  Biso 1.0 Ni
Ni11 1.0000000000 0.0000000000 0.8432432711 0.4304402511  Biso 1.0 Ni
Ni12 1.0000000000 0.0000000000 0.8432432711 0.0695597489  Biso 1.0 Ni
Ni13 1.0000000000 0.0000000000 0.1567567289 0.5695597489  Biso 1.0 Ni
Ni14 1.0000000000 0.0000000000 0.1567567289 0.9304402511  Biso 1.0 Ni
