# AFLOW.org Repositories
# Ca3Hg2   [TET,TET,tP10] (STD_PRIM doi:10
data_Ca3Hg2
_pd_phase_name Ca3Hg2
_cell_length_a  8.5474381304
_cell_length_b  8.5474381304
_cell_length_c  4.2325358509
_cell_angle_alpha  90.0000000000
_cell_angle_beta  90.0000000000
_cell_angle_gamma  90.0000000000
_symmetry_space_group_name_H-M  'P1'
_symmetry_Int_Tables_Number  1
loop_
_symmetry_equiv_pos_site_id
_symmetry_equiv_pos_as_xyz
  1  x,y,z
loop_
 _atom_site_label
 _atom_site_occupancy
 _atom_site_fract_x
 _atom_site_fract_y
 _atom_site_fract_z
 _atom_site_thermal_displace_type
 _atom_site_B_iso_or_equiv
 _atom_site_type_symbol
Ca1 1.0000000000 0.0000000000 0.0000000000 0.0000000000  Biso 1.0 Ca
Ca2 1.0000000000 0.5000000000 0.5000000000 0.0000000000  Biso 1.0 Ca
Ca3 1.0000000000 0.1584736112 0.6584736112 0.5000000000  Biso 1.0 Ca
Ca4 1.0000000000 0.8415263888 0.3415263888 0.5000000000  Biso 1.0 Ca
Ca5 1.0000000000 0.3415263888 0.1584736112 0.5000000000  Biso 1.0 Ca
Ca6 1.0000000000 0.6584736112 0.8415263888 0.5000000000  Biso 1.0 Ca
Hg7 1.0000000000 0.3606717670 0.8606717670 0.0000000000  Biso 1.0 Hg
Hg8 1.0000000000 0.6393282330 0.1393282330 0.0000000000  Biso 1.0 Hg
Hg9 1.0000000000 0.1393282330 0.3606717670 0.0000000000  Biso 1.0 Hg
Hg10 1.0000000000 0.8606717670 0.6393282330 0.0000000000  Biso 1.0 Hg
