# AFLOW.org Repositories
# Ca3N2   [BCC,BCC,cI80] (STD_PRIM doi:10.
data_Ca3N2
_pd_phase_name Ca3N2
_cell_length_a  9.9373983177
_cell_length_b  9.9373983177
_cell_length_c  9.9373983177
_cell_angle_alpha  109.4712206345
_cell_angle_beta  109.4712206345
_cell_angle_gamma  109.4712206345
_symmetry_space_group_name_H-M  'P1'
_symmetry_Int_Tables_Number  1
loop_
_symmetry_equiv_pos_site_id
_symmetry_equiv_pos_as_xyz
  1  x,y,z
loop_
 _atom_site_label
 _atom_site_occupancy
 _atom_site_fract_x
 _atom_site_fract_y
 _atom_site_fract_z
 _atom_site_thermal_displace_type
 _atom_site_B_iso_or_equiv
 _atom_site_type_symbol
Ca1 1.0000000000 0.7714769334 0.5438024747 0.0068296133  Biso 1.0 Ca
Ca2 1.0000000000 0.9630271386 0.9561975253 0.2276744587  Biso 1.0 Ca
Ca3 1.0000000000 0.5369728614 0.2646473201 0.4931703867  Biso 1.0 Ca
Ca4 1.0000000000 0.7285230666 0.2353526799 0.2723255413  Biso 1.0 Ca
Ca5 1.0000000000 0.2353526799 0.7723255413 0.2285230666  Biso 1.0 Ca
Ca6 1.0000000000 0.2646473201 0.9931703867 0.0369728614  Biso 1.0 Ca
Ca7 1.0000000000 0.9561975253 0.7276744587 0.4630271386  Biso 1.0 Ca
Ca8 1.0000000000 0.5438024747 0.5068296133 0.2714769334  Biso 1.0 Ca
Ca9 1.0000000000 0.9931703867 0.5369728614 0.7646473201  Biso 1.0 Ca
Ca10 1.0000000000 0.7723255413 0.7285230666 0.7353526799  Biso 1.0 Ca
Ca11 1.0000000000 0.5068296133 0.7714769334 0.0438024747  Biso 1.0 Ca
Ca12 1.0000000000 0.7276744587 0.9630271386 0.4561975253  Biso 1.0 Ca
Ca13 1.0000000000 0.2285230666 0.4561975253 0.9931703867  Biso 1.0 Ca
Ca14 1.0000000000 0.0369728614 0.0438024747 0.7723255413  Biso 1.0 Ca
Ca15 1.0000000000 0.4630271386 0.7353526799 0.5068296133  Biso 1.0 Ca
Ca16 1.0000000000 0.2714769334 0.7646473201 0.7276744587  Biso 1.0 Ca
Ca17 1.0000000000 0.7646473201 0.2276744587 0.7714769334  Biso 1.0 Ca
Ca18 1.0000000000 0.7353526799 0.0068296133 0.9630271386  Biso 1.0 Ca
Ca19 1.0000000000 0.0438024747 0.2723255413 0.5369728614  Biso 1.0 Ca
Ca20 1.0000000000 0.4561975253 0.4931703867 0.7285230666  Biso 1.0 Ca
Ca21 1.0000000000 0.0068296133 0.4630271386 0.2353526799  Biso 1.0 Ca
Ca22 1.0000000000 0.2276744587 0.2714769334 0.2646473201  Biso 1.0 Ca
Ca23 1.0000000000 0.4931703867 0.2285230666 0.9561975253  Biso 1.0 Ca
Ca24 1.0000000000 0.2723255413 0.0369728614 0.5438024747  Biso 1.0 Ca
N25 1.0000000000 0.0000000000 0.5000000000 0.0000000000  Biso 1.0 N
N26 1.0000000000 0.0000000000 0.0000000000 0.5000000000  Biso 1.0 N
N27 1.0000000000 0.5000000000 0.5000000000 0.5000000000  Biso 1.0 N
N28 1.0000000000 0.5000000000 0.0000000000 0.0000000000  Biso 1.0 N
N29 1.0000000000 0.7500000000 0.9605277726 0.7105277726  Biso 1.0 N
N30 1.0000000000 0.2500000000 0.5394722274 0.7894722274  Biso 1.0 N
N31 1.0000000000 0.9605277726 0.2105277726 0.2500000000  Biso 1.0 N
N32 1.0000000000 0.5394722274 0.2894722274 0.7500000000  Biso 1.0 N
N33 1.0000000000 0.2894722274 0.2500000000 0.0394722274  Biso 1.0 N
N34 1.0000000000 0.2105277726 0.7500000000 0.4605277726  Biso 1.0 N
N35 1.0000000000 0.2500000000 0.0394722274 0.2894722274  Biso 1.0 N
N36 1.0000000000 0.7500000000 0.4605277726 0.2105277726  Biso 1.0 N
N37 1.0000000000 0.0394722274 0.7894722274 0.7500000000  Biso 1.0 N
N38 1.0000000000 0.4605277726 0.7105277726 0.2500000000  Biso 1.0 N
N39 1.0000000000 0.7105277726 0.7500000000 0.9605277726  Biso 1.0 N
N40 1.0000000000 0.7894722274 0.2500000000 0.5394722274  Biso 1.0 N
