# AFLOW.org Repositories
# Cd1Dy2Te4   [FCC,FCC,cF56] (STD_PRIM doi
data_Cd1Dy2Te4
_pd_phase_name Cd1Dy2Te4
_cell_length_a  8.9353725475
_cell_length_b  8.9353725475
_cell_length_c  8.9353725475
_cell_angle_alpha  60.0000000000
_cell_angle_beta  60.0000000000
_cell_angle_gamma  60.0000000000
_symmetry_space_group_name_H-M  'P1'
_symmetry_Int_Tables_Number  1
loop_
_symmetry_equiv_pos_site_id
_symmetry_equiv_pos_as_xyz
  1  x,y,z
loop_
 _atom_site_label
 _atom_site_occupancy
 _atom_site_fract_x
 _atom_site_fract_y
 _atom_site_fract_z
 _atom_site_thermal_displace_type
 _atom_site_B_iso_or_equiv
 _atom_site_type_symbol
Cd1 1.0000000000 0.3750000000 0.8750000000 0.3750000000  Biso 1.0 Cd
Cd2 1.0000000000 0.6250000000 0.1250000000 0.6250000000  Biso 1.0 Cd
Dy3 1.0000000000 0.0000000000 0.0000000000 0.0000000000  Biso 1.0 Dy
Dy4 1.0000000000 0.0000000000 0.5000000000 0.0000000000  Biso 1.0 Dy
Dy5 1.0000000000 0.0000000000 0.5000000000 0.5000000000  Biso 1.0 Dy
Dy6 1.0000000000 0.5000000000 0.5000000000 0.0000000000  Biso 1.0 Dy
Te7 1.0000000000 0.2440665108 0.2678004675 0.2440665108  Biso 1.0 Te
Te8 1.0000000000 0.2440665108 0.7440665108 0.2440665108  Biso 1.0 Te
Te9 1.0000000000 0.2440665108 0.7440665108 0.7678004675  Biso 1.0 Te
Te10 1.0000000000 0.7678004675 0.7440665108 0.2440665108  Biso 1.0 Te
Te11 1.0000000000 0.7559334892 0.2559334892 0.7559334892  Biso 1.0 Te
Te12 1.0000000000 0.7559334892 0.7321995325 0.7559334892  Biso 1.0 Te
Te13 1.0000000000 0.7559334892 0.2559334892 0.2321995325  Biso 1.0 Te
Te14 1.0000000000 0.2321995325 0.2559334892 0.7559334892  Biso 1.0 Te
