# AFLOW.org Repositories
# Cd1Er2Se4   [FCC,FCC,cF56] (STD_PRIM doi
data_Cd1Er2Se4
_pd_phase_name Cd1Er2Se4
_cell_length_a  8.2904900136
_cell_length_b  8.2904900136
_cell_length_c  8.2904900136
_cell_angle_alpha  60.0000000000
_cell_angle_beta  60.0000000000
_cell_angle_gamma  60.0000000000
_symmetry_space_group_name_H-M  'P1'
_symmetry_Int_Tables_Number  1
loop_
_symmetry_equiv_pos_site_id
_symmetry_equiv_pos_as_xyz
  1  x,y,z
loop_
 _atom_site_label
 _atom_site_occupancy
 _atom_site_fract_x
 _atom_site_fract_y
 _atom_site_fract_z
 _atom_site_thermal_displace_type
 _atom_site_B_iso_or_equiv
 _atom_site_type_symbol
Cd1 1.0000000000 0.0000000000 0.0000000000 0.0000000000  Biso 1.0 Cd
Cd2 1.0000000000 0.7500000000 0.7500000000 0.7500000000  Biso 1.0 Cd
Er3 1.0000000000 0.3750000000 0.8750000000 0.3750000000  Biso 1.0 Er
Er4 1.0000000000 0.8750000000 0.3750000000 0.3750000000  Biso 1.0 Er
Er5 1.0000000000 0.3750000000 0.3750000000 0.8750000000  Biso 1.0 Er
Er6 1.0000000000 0.3750000000 0.3750000000 0.3750000000  Biso 1.0 Er
Se7 1.0000000000 0.6175254106 0.1474237682 0.6175254106  Biso 1.0 Se
Se8 1.0000000000 0.1474237682 0.6175254106 0.6175254106  Biso 1.0 Se
Se9 1.0000000000 0.6175254106 0.6175254106 0.1474237682  Biso 1.0 Se
Se10 1.0000000000 0.6175254106 0.6175254106 0.6175254106  Biso 1.0 Se
Se11 1.0000000000 0.6025762318 0.1324745894 0.1324745894  Biso 1.0 Se
Se12 1.0000000000 0.1324745894 0.6025762318 0.1324745894  Biso 1.0 Se
Se13 1.0000000000 0.1324745894 0.1324745894 0.6025762318  Biso 1.0 Se
Se14 1.0000000000 0.1324745894 0.1324745894 0.1324745894  Biso 1.0 Se
