# AFLOW.org Repositories
# Cd1Ga2O4   [FCC,FCC,cF56] (STD_PRIM doi:
data_Cd1Ga2O4
_pd_phase_name Cd1Ga2O4
_cell_length_a  6.1579124347
_cell_length_b  6.1579124347
_cell_length_c  6.1579124347
_cell_angle_alpha  60.0000000000
_cell_angle_beta  60.0000000000
_cell_angle_gamma  60.0000000000
_symmetry_space_group_name_H-M  'P1'
_symmetry_Int_Tables_Number  1
loop_
_symmetry_equiv_pos_site_id
_symmetry_equiv_pos_as_xyz
  1  x,y,z
loop_
 _atom_site_label
 _atom_site_occupancy
 _atom_site_fract_x
 _atom_site_fract_y
 _atom_site_fract_z
 _atom_site_thermal_displace_type
 _atom_site_B_iso_or_equiv
 _atom_site_type_symbol
Cd1 1.0000000000 0.1250000000 0.6250000000 0.1250000000  Biso 1.0 Cd
Cd2 1.0000000000 0.8750000000 0.3750000000 0.8750000000  Biso 1.0 Cd
Ga3 1.0000000000 0.5000000000 0.5000000000 0.5000000000  Biso 1.0 Ga
Ga4 1.0000000000 0.0000000000 0.0000000000 0.5000000000  Biso 1.0 Ga
Ga5 1.0000000000 0.5000000000 0.0000000000 0.5000000000  Biso 1.0 Ga
Ga6 1.0000000000 0.5000000000 0.0000000000 0.0000000000  Biso 1.0 Ga
O7 1.0000000000 0.2680775286 0.1957674141 0.2680775286  Biso 1.0 O
O8 1.0000000000 0.6957674141 0.7680775286 0.2680775286  Biso 1.0 O
O9 1.0000000000 0.2680775286 0.7680775286 0.2680775286  Biso 1.0 O
O10 1.0000000000 0.2680775286 0.7680775286 0.6957674141  Biso 1.0 O
O11 1.0000000000 0.3042325859 0.2319224714 0.7319224714  Biso 1.0 O
O12 1.0000000000 0.7319224714 0.8042325859 0.7319224714  Biso 1.0 O
O13 1.0000000000 0.7319224714 0.2319224714 0.7319224714  Biso 1.0 O
O14 1.0000000000 0.7319224714 0.2319224714 0.3042325859  Biso 1.0 O
