# AFLOW.org Repositories
# Cd1Mn2O4   [BCT,BCT2,tI28] (STD_PRIM doi
data_Cd1Mn2O4
_pd_phase_name Cd1Mn2O4
_cell_length_a  6.5092376754
_cell_length_b  6.5092376754
_cell_length_c  6.5092376754
_cell_angle_alpha  125.5385616391
_cell_angle_beta  125.5385616391
_cell_angle_gamma  80.6478782665
_symmetry_space_group_name_H-M  'P1'
_symmetry_Int_Tables_Number  1
loop_
_symmetry_equiv_pos_site_id
_symmetry_equiv_pos_as_xyz
  1  x,y,z
loop_
 _atom_site_label
 _atom_site_occupancy
 _atom_site_fract_x
 _atom_site_fract_y
 _atom_site_fract_z
 _atom_site_thermal_displace_type
 _atom_site_B_iso_or_equiv
 _atom_site_type_symbol
Cd1 1.0000000000 0.0000000000 0.0000000000 0.0000000000  Biso 1.0 Cd
Cd2 1.0000000000 0.2500000000 0.7500000000 0.5000000000  Biso 1.0 Cd
Mn3 1.0000000000 0.1250000000 0.3750000000 0.7500000000  Biso 1.0 Mn
Mn4 1.0000000000 0.6250000000 0.3750000000 0.2500000000  Biso 1.0 Mn
Mn5 1.0000000000 0.6250000000 0.8750000000 0.2500000000  Biso 1.0 Mn
Mn6 1.0000000000 0.6250000000 0.3750000000 0.7500000000  Biso 1.0 Mn
O7 1.0000000000 0.3927152163 0.6093336316 0.7833815847  Biso 1.0 O
O8 1.0000000000 0.8259520469 0.6093336316 0.2166184153  Biso 1.0 O
O9 1.0000000000 0.8593336316 0.1427152163 0.2833815847  Biso 1.0 O
O10 1.0000000000 0.8593336316 0.5759520469 0.7166184153  Biso 1.0 O
O11 1.0000000000 0.4240479531 0.1406663684 0.2833815847  Biso 1.0 O
O12 1.0000000000 0.8572847837 0.1406663684 0.7166184153  Biso 1.0 O
O13 1.0000000000 0.3906663684 0.6072847837 0.2166184153  Biso 1.0 O
O14 1.0000000000 0.3906663684 0.1740479531 0.7833815847  Biso 1.0 O
