# AFLOW.org Repositories
# Cd1O3Ti1   [ORC,ORC,oP20] (STD_PRIM doi:
data_Cd1O3Ti1
_pd_phase_name Cd1O3Ti1
_cell_length_a  5.3925599211
_cell_length_b  5.5096569457
_cell_length_c  7.7633505925
_cell_angle_alpha  90.0000000000
_cell_angle_beta  90.0000000000
_cell_angle_gamma  90.0000000000
_symmetry_space_group_name_H-M  'P1'
_symmetry_Int_Tables_Number  1
loop_
_symmetry_equiv_pos_site_id
_symmetry_equiv_pos_as_xyz
  1  x,y,z
loop_
 _atom_site_label
 _atom_site_occupancy
 _atom_site_fract_x
 _atom_site_fract_y
 _atom_site_fract_z
 _atom_site_thermal_displace_type
 _atom_site_B_iso_or_equiv
 _atom_site_type_symbol
Cd1 1.0000000000 0.0079120836 0.9598018333 0.7509318503  Biso 1.0 Cd
Cd2 1.0000000000 0.9921021058 0.0401770918 0.2509273894  Biso 1.0 Cd
Cd3 1.0000000000 0.4920874305 0.4598009187 0.7509319804  Biso 1.0 Cd
Cd4 1.0000000000 0.5078980511 0.5401769725 0.2509277308  Biso 1.0 Cd
O5 1.0000000000 0.5924715230 0.0318523712 0.7508717798  Biso 1.0 O
O6 1.0000000000 0.4075810419 0.9681549978 0.2508746615  Biso 1.0 O
O7 1.0000000000 0.9075277571 0.5318533809 0.7508714380  Biso 1.0 O
O8 1.0000000000 0.0924197588 0.4681551728 0.2508742371  Biso 1.0 O
O9 1.0000000000 0.3014910261 0.7012564361 0.9524834497  Biso 1.0 O
O10 1.0000000000 0.6984931219 0.2987444502 0.4525165161  Biso 1.0 O
O11 1.0000000000 0.1985107227 0.2012561964 0.9524831810  Biso 1.0 O
O12 1.0000000000 0.8015052343 0.7987450434 0.4525148918  Biso 1.0 O
O13 1.0000000000 0.3016251782 0.7010395142 0.5492700851  Biso 1.0 O
O14 1.0000000000 0.6983606856 0.2989688777 0.0492432963  Biso 1.0 O
O15 1.0000000000 0.1983753228 0.2010379820 0.5492704745  Biso 1.0 O
O16 1.0000000000 0.8016393589 0.7989705486 0.0492428944  Biso 1.0 O
Ti17 1.0000000000 0.5000176374 0.0000000000 0.0000000000  Biso 1.0 Ti
Ti18 1.0000000000 0.5000165548 0.0000000000 0.5009223500  Biso 1.0 Ti
Ti19 1.0000000000 0.0000000000 0.5000524707 0.0000000000  Biso 1.0 Ti
Ti20 1.0000000000 0.0000000000 0.4999523461 0.5009228265  Biso 1.0 Ti
