# AFLOW.org Repositories
# Cd1O3V1   [ORC,ORC,oP20] (STD_PRIM doi:1
data_Cd1O3V1
_pd_phase_name Cd1O3V1
_cell_length_a  5.3348514841
_cell_length_b  5.3820850502
_cell_length_c  7.7679062700
_cell_angle_alpha  90.0000000000
_cell_angle_beta  90.0000000000
_cell_angle_gamma  90.0000000000
_symmetry_space_group_name_H-M  'P1'
_symmetry_Int_Tables_Number  1
loop_
_symmetry_equiv_pos_site_id
_symmetry_equiv_pos_as_xyz
  1  x,y,z
loop_
 _atom_site_label
 _atom_site_occupancy
 _atom_site_fract_x
 _atom_site_fract_y
 _atom_site_fract_z
 _atom_site_thermal_displace_type
 _atom_site_B_iso_or_equiv
 _atom_site_type_symbol
Cd1 1.0000000000 0.0067417088 0.0378452581 0.7500000000  Biso 1.0 Cd
Cd2 1.0000000000 0.5067417088 0.4621547419 0.2500000000  Biso 1.0 Cd
Cd3 1.0000000000 0.9932582912 0.9621547419 0.2500000000  Biso 1.0 Cd
Cd4 1.0000000000 0.4932582912 0.5378452581 0.7500000000  Biso 1.0 Cd
O5 1.0000000000 0.9063810684 0.4690383694 0.7500000000  Biso 1.0 O
O6 1.0000000000 0.4063810684 0.0309616306 0.2500000000  Biso 1.0 O
O7 1.0000000000 0.0936189316 0.5309616306 0.2500000000  Biso 1.0 O
O8 1.0000000000 0.5936189316 0.9690383694 0.7500000000  Biso 1.0 O
O9 1.0000000000 0.3048613579 0.2842516642 0.9518145689  Biso 1.0 O
O10 1.0000000000 0.8048613579 0.2157483358 0.0481854311  Biso 1.0 O
O11 1.0000000000 0.6951386421 0.7157483358 0.4518145689  Biso 1.0 O
O12 1.0000000000 0.1951386421 0.7842516642 0.5481854311  Biso 1.0 O
O13 1.0000000000 0.6951386421 0.7157483358 0.0481854311  Biso 1.0 O
O14 1.0000000000 0.1951386421 0.7842516642 0.9518145689  Biso 1.0 O
O15 1.0000000000 0.3048613579 0.2842516642 0.5481854311  Biso 1.0 O
O16 1.0000000000 0.8048613579 0.2157483358 0.4518145689  Biso 1.0 O
V17 1.0000000000 0.5000000000 0.0000000000 0.0000000000  Biso 1.0 V
V18 1.0000000000 0.0000000000 0.5000000000 0.0000000000  Biso 1.0 V
V19 1.0000000000 0.5000000000 0.0000000000 0.5000000000  Biso 1.0 V
V20 1.0000000000 0.0000000000 0.5000000000 0.5000000000  Biso 1.0 V
