# AFLOW.org Repositories
# Cd1Se1   [HEX,HEX,hP4] (STD_PRIM doi:10.
data_Cd1Se1
_pd_phase_name Cd1Se1
_cell_length_a  4.3738446463
_cell_length_b  4.3738446463
_cell_length_c  7.1329871718
_cell_angle_alpha  90.0000000000
_cell_angle_beta  90.0000000000
_cell_angle_gamma  120.0000000000
_symmetry_space_group_name_H-M  'P1'
_symmetry_Int_Tables_Number  1
loop_
_symmetry_equiv_pos_site_id
_symmetry_equiv_pos_as_xyz
  1  x,y,z
loop_
 _atom_site_label
 _atom_site_occupancy
 _atom_site_fract_x
 _atom_site_fract_y
 _atom_site_fract_z
 _atom_site_thermal_displace_type
 _atom_site_B_iso_or_equiv
 _atom_site_type_symbol
Cd1 1.0000000000 0.3333130005 0.6666869995 0.0000000000  Biso 1.0 Cd
Cd2 1.0000000000 0.6666869995 0.3333130005 0.4999921088  Biso 1.0 Cd
Se3 1.0000000000 0.3333144069 0.6666855931 0.3759078912  Biso 1.0 Se
Se4 1.0000000000 0.6666855931 0.3333144069 0.8759078912  Biso 1.0 Se
