# AFLOW.org Repositories
# Ce1Os2   [HEX,HEX,hP12] (STD_PRIM doi:10
data_Ce1Os2
_pd_phase_name Ce1Os2
_cell_length_a  5.3288453216
_cell_length_b  5.3288453216
_cell_length_c  9.0371941750
_cell_angle_alpha  90.0000000000
_cell_angle_beta  90.0000000000
_cell_angle_gamma  120.0000000000
_symmetry_space_group_name_H-M  'P1'
_symmetry_Int_Tables_Number  1
loop_
_symmetry_equiv_pos_site_id
_symmetry_equiv_pos_as_xyz
  1  x,y,z
loop_
 _atom_site_label
 _atom_site_occupancy
 _atom_site_fract_x
 _atom_site_fract_y
 _atom_site_fract_z
 _atom_site_thermal_displace_type
 _atom_site_B_iso_or_equiv
 _atom_site_type_symbol
Ce1 1.0000000000 0.3333282549 0.6666717451 0.0694874027  Biso 1.0 Ce
Ce2 1.0000000000 0.6666717451 0.3333282549 0.5694874027  Biso 1.0 Ce
Ce3 1.0000000000 0.6666717451 0.3333282549 0.9305125973  Biso 1.0 Ce
Ce4 1.0000000000 0.3333282549 0.6666717451 0.4305125973  Biso 1.0 Ce
Os5 1.0000000000 0.0000000000 0.0000000000 0.0000000000  Biso 1.0 Os
Os6 1.0000000000 0.0000000000 0.0000000000 0.5000000000  Biso 1.0 Os
Os7 1.0000000000 0.8297120545 0.6594516090 0.2500000000  Biso 1.0 Os
Os8 1.0000000000 0.3405483910 0.1702879455 0.2500000000  Biso 1.0 Os
Os9 1.0000000000 0.8297253234 0.1702746766 0.2500000000  Biso 1.0 Os
Os10 1.0000000000 0.1702879455 0.3405483910 0.7500000000  Biso 1.0 Os
Os11 1.0000000000 0.6594516090 0.8297120545 0.7500000000  Biso 1.0 Os
Os12 1.0000000000 0.1702746766 0.8297253234 0.7500000000  Biso 1.0 Os
