# AFLOW.org Repositories
# Ce1O3Sr1   [ORC,ORC,oP20] (STD_PRIM doi:
data_Ce1O3Sr1
_pd_phase_name Ce1O3Sr1
_cell_length_a  6.0702183988
_cell_length_b  6.2395610007
_cell_length_c  8.7030081885
_cell_angle_alpha  90.0000000000
_cell_angle_beta  90.0000000000
_cell_angle_gamma  90.0000000000
_symmetry_space_group_name_H-M  'P1'
_symmetry_Int_Tables_Number  1
loop_
_symmetry_equiv_pos_site_id
_symmetry_equiv_pos_as_xyz
  1  x,y,z
loop_
 _atom_site_label
 _atom_site_occupancy
 _atom_site_fract_x
 _atom_site_fract_y
 _atom_site_fract_z
 _atom_site_thermal_displace_type
 _atom_site_B_iso_or_equiv
 _atom_site_type_symbol
Ce1 1.0000000000 0.5000000000 0.0000000000 0.0000000000  Biso 1.0 Ce
Ce2 1.0000000000 0.0000000000 0.5000000000 0.0000000000  Biso 1.0 Ce
Ce3 1.0000000000 0.5000000000 0.0000000000 0.5000000000  Biso 1.0 Ce
Ce4 1.0000000000 0.0000000000 0.5000000000 0.5000000000  Biso 1.0 Ce
O5 1.0000000000 0.3896389724 0.0477953464 0.7500000000  Biso 1.0 O
O6 1.0000000000 0.8896389724 0.4522046536 0.2500000000  Biso 1.0 O
O7 1.0000000000 0.6103610276 0.9522046536 0.2500000000  Biso 1.0 O
O8 1.0000000000 0.1103610276 0.5477953464 0.7500000000  Biso 1.0 O
O9 1.0000000000 0.8004830602 0.2005498470 0.5593690549  Biso 1.0 O
O10 1.0000000000 0.3004830602 0.2994501530 0.4406309451  Biso 1.0 O
O11 1.0000000000 0.1995169398 0.7994501530 0.0593690549  Biso 1.0 O
O12 1.0000000000 0.6995169398 0.7005498470 0.9406309451  Biso 1.0 O
O13 1.0000000000 0.1995169398 0.7994501530 0.4406309451  Biso 1.0 O
O14 1.0000000000 0.6995169398 0.7005498470 0.5593690549  Biso 1.0 O
O15 1.0000000000 0.8004830602 0.2005498470 0.9406309451  Biso 1.0 O
O16 1.0000000000 0.3004830602 0.2994501530 0.0593690549  Biso 1.0 O
Sr17 1.0000000000 0.9866303246 0.9536666928 0.7500000000  Biso 1.0 Sr
Sr18 1.0000000000 0.4866303246 0.5463333072 0.2500000000  Biso 1.0 Sr
Sr19 1.0000000000 0.0133696754 0.0463333072 0.2500000000  Biso 1.0 Sr
Sr20 1.0000000000 0.5133696754 0.4536666928 0.7500000000  Biso 1.0 Sr
