# AFLOW.org Repositories
# Cl1O1Y1   [TET,TET,tP6] (STD_PRIM doi:10
data_Cl1O1Y1
_pd_phase_name Cl1O1Y1
_cell_length_a  3.9352370964
_cell_length_b  3.9352370964
_cell_length_c  6.7003631489
_cell_angle_alpha  90.0000000000
_cell_angle_beta  90.0000000000
_cell_angle_gamma  90.0000000000
_symmetry_space_group_name_H-M  'P1'
_symmetry_Int_Tables_Number  1
loop_
_symmetry_equiv_pos_site_id
_symmetry_equiv_pos_as_xyz
  1  x,y,z
loop_
 _atom_site_label
 _atom_site_occupancy
 _atom_site_fract_x
 _atom_site_fract_y
 _atom_site_fract_z
 _atom_site_thermal_displace_type
 _atom_site_B_iso_or_equiv
 _atom_site_type_symbol
Cl1 1.0000000000 0.2500000000 0.2500000000 0.6264265011  Biso 1.0 Cl
Cl2 1.0000000000 0.7500000000 0.7500000000 0.3735734989  Biso 1.0 Cl
O3 1.0000000000 0.7500000000 0.2500000000 0.0000000000  Biso 1.0 O
O4 1.0000000000 0.2500000000 0.7500000000 0.0000000000  Biso 1.0 O
Y5 1.0000000000 0.2500000000 0.2500000000 0.1674612492  Biso 1.0 Y
Y6 1.0000000000 0.7500000000 0.7500000000 0.8325387508  Biso 1.0 Y
