# AFLOW.org Repositories
# Cl6Cs2Sn1   [FCC,FCC,cF36] (STD_PRIM doi
data_Cl6Cs2Sn1
_pd_phase_name Cl6Cs2Sn1
_cell_length_a  7.6426430587
_cell_length_b  7.6426430587
_cell_length_c  7.6426430587
_cell_angle_alpha  60.0000000000
_cell_angle_beta  60.0000000000
_cell_angle_gamma  60.0000000000
_symmetry_space_group_name_H-M  'P1'
_symmetry_Int_Tables_Number  1
loop_
_symmetry_equiv_pos_site_id
_symmetry_equiv_pos_as_xyz
  1  x,y,z
loop_
 _atom_site_label
 _atom_site_occupancy
 _atom_site_fract_x
 _atom_site_fract_y
 _atom_site_fract_z
 _atom_site_thermal_displace_type
 _atom_site_B_iso_or_equiv
 _atom_site_type_symbol
Cl1 1.0000000000 0.7681692182 0.7681692182 0.2318307818  Biso 1.0 Cl
Cl2 1.0000000000 0.2318307818 0.2318307818 0.7681692182  Biso 1.0 Cl
Cl3 1.0000000000 0.2318307818 0.7681692182 0.2318307818  Biso 1.0 Cl
Cl4 1.0000000000 0.7681692182 0.2318307818 0.7681692182  Biso 1.0 Cl
Cl5 1.0000000000 0.7681692182 0.2318307818 0.2318307818  Biso 1.0 Cl
Cl6 1.0000000000 0.2318307818 0.7681692182 0.7681692182  Biso 1.0 Cl
Cs7 1.0000000000 0.7500000000 0.7500000000 0.7500000000  Biso 1.0 Cs
Cs8 1.0000000000 0.2500000000 0.2500000000 0.2500000000  Biso 1.0 Cs
Sn9 1.0000000000 0.0000000000 0.0000000000 0.0000000000  Biso 1.0 Sn
