# AFLOW.org Repositories
# Co1Dy1Ge1   [ORC,ORC,oP12] (STD_PRIM doi
data_Co1Dy1Ge1
_pd_phase_name Co1Dy1Ge1
_cell_length_a  4.3316028652
_cell_length_b  7.1491677051
_cell_length_c  7.4366194363
_cell_angle_alpha  90.0000000000
_cell_angle_beta  90.0000000000
_cell_angle_gamma  90.0000000000
_symmetry_space_group_name_H-M  'P1'
_symmetry_Int_Tables_Number  1
loop_
_symmetry_equiv_pos_site_id
_symmetry_equiv_pos_as_xyz
  1  x,y,z
loop_
 _atom_site_label
 _atom_site_occupancy
 _atom_site_fract_x
 _atom_site_fract_y
 _atom_site_fract_z
 _atom_site_thermal_displace_type
 _atom_site_B_iso_or_equiv
 _atom_site_type_symbol
Co1 1.0000000000 0.2500000000 0.8444148337 0.4324507696  Biso 1.0 Co
Co2 1.0000000000 0.7500000000 0.6555851663 0.9324507696  Biso 1.0 Co
Co3 1.0000000000 0.7500000000 0.1555851663 0.5675492304  Biso 1.0 Co
Co4 1.0000000000 0.2500000000 0.3444148337 0.0675492304  Biso 1.0 Co
Dy5 1.0000000000 0.2500000000 0.0094173850 0.7945993932  Biso 1.0 Dy
Dy6 1.0000000000 0.7500000000 0.4905826150 0.2945993932  Biso 1.0 Dy
Dy7 1.0000000000 0.7500000000 0.9905826150 0.2054006068  Biso 1.0 Dy
Dy8 1.0000000000 0.2500000000 0.5094173850 0.7054006068  Biso 1.0 Dy
Ge9 1.0000000000 0.2500000000 0.2165628140 0.3994753360  Biso 1.0 Ge
Ge10 1.0000000000 0.7500000000 0.2834371860 0.8994753360  Biso 1.0 Ge
Ge11 1.0000000000 0.7500000000 0.7834371860 0.6005246640  Biso 1.0 Ge
Ge12 1.0000000000 0.2500000000 0.7165628140 0.1005246640  Biso 1.0 Ge
