# AFLOW.org Repositories
# Co1Ge1Nb1   [ORC,ORC,oP12] (STD_PRIM doi
data_Co1Ge1Nb1
_pd_phase_name Co1Ge1Nb1
_cell_length_a  3.8086403100
_cell_length_b  6.5122103720
_cell_length_c  7.4109269000
_cell_angle_alpha  90.0000000000
_cell_angle_beta  90.0000000000
_cell_angle_gamma  90.0000000000
_symmetry_space_group_name_H-M  'P1'
_symmetry_Int_Tables_Number  1
loop_
_symmetry_equiv_pos_site_id
_symmetry_equiv_pos_as_xyz
  1  x,y,z
loop_
 _atom_site_label
 _atom_site_occupancy
 _atom_site_fract_x
 _atom_site_fract_y
 _atom_site_fract_z
 _atom_site_thermal_displace_type
 _atom_site_B_iso_or_equiv
 _atom_site_type_symbol
Co1 1.0000000000 0.2500000000 0.8489273877 0.4348191644  Biso 1.0 Co
Co2 1.0000000000 0.7500000000 0.6510726123 0.9348191644  Biso 1.0 Co
Co3 1.0000000000 0.7500000000 0.1510726123 0.5651808356  Biso 1.0 Co
Co4 1.0000000000 0.2500000000 0.3489273877 0.0651808356  Biso 1.0 Co
Ge5 1.0000000000 0.2500000000 0.2220951120 0.3798824943  Biso 1.0 Ge
Ge6 1.0000000000 0.7500000000 0.2779048880 0.8798824943  Biso 1.0 Ge
Ge7 1.0000000000 0.7500000000 0.7779048880 0.6201175057  Biso 1.0 Ge
Ge8 1.0000000000 0.2500000000 0.7220951120 0.1201175057  Biso 1.0 Ge
Nb9 1.0000000000 0.2500000000 0.9902533505 0.8300862560  Biso 1.0 Nb
Nb10 1.0000000000 0.7500000000 0.5097466495 0.3300862560  Biso 1.0 Nb
Nb11 1.0000000000 0.7500000000 0.0097466495 0.1699137440  Biso 1.0 Nb
Nb12 1.0000000000 0.2500000000 0.4902533505 0.6699137440  Biso 1.0 Nb
