# AFLOW.org Repositories
# Co1Sb3   [BCC,BCC,cI32] (STD_PRIM doi:10
data_Co1Sb3
_pd_phase_name Co1Sb3
_cell_length_a  7.8713694458
_cell_length_b  7.8713694458
_cell_length_c  7.8713694458
_cell_angle_alpha  109.4712206345
_cell_angle_beta  109.4712206345
_cell_angle_gamma  109.4712206345
_symmetry_space_group_name_H-M  'P1'
_symmetry_Int_Tables_Number  1
loop_
_symmetry_equiv_pos_site_id
_symmetry_equiv_pos_as_xyz
  1  x,y,z
loop_
 _atom_site_label
 _atom_site_occupancy
 _atom_site_fract_x
 _atom_site_fract_y
 _atom_site_fract_z
 _atom_site_thermal_displace_type
 _atom_site_B_iso_or_equiv
 _atom_site_type_symbol
Co1 1.0000000000 0.5000000000 0.0000000000 0.0000000000  Biso 1.0 Co
Co2 1.0000000000 0.0000000000 0.0000000000 0.5000000000  Biso 1.0 Co
Co3 1.0000000000 0.5000000000 0.5000000000 0.5000000000  Biso 1.0 Co
Co4 1.0000000000 0.0000000000 0.5000000000 0.0000000000  Biso 1.0 Co
Sb5 1.0000000000 0.8407748211 0.3337850416 0.1745598627  Biso 1.0 Sb
Sb6 1.0000000000 0.8407748211 0.6662149584 0.5069897795  Biso 1.0 Sb
Sb7 1.0000000000 0.1592251789 0.3337850416 0.4930102205  Biso 1.0 Sb
Sb8 1.0000000000 0.1592251789 0.6662149584 0.8254401373  Biso 1.0 Sb
Sb9 1.0000000000 0.5069897795 0.8407748211 0.6662149584  Biso 1.0 Sb
Sb10 1.0000000000 0.1745598627 0.8407748211 0.3337850416  Biso 1.0 Sb
Sb11 1.0000000000 0.8254401373 0.1592251789 0.6662149584  Biso 1.0 Sb
Sb12 1.0000000000 0.4930102205 0.1592251789 0.3337850416  Biso 1.0 Sb
Sb13 1.0000000000 0.6662149584 0.8254401373 0.1592251789  Biso 1.0 Sb
Sb14 1.0000000000 0.3337850416 0.4930102205 0.1592251789  Biso 1.0 Sb
Sb15 1.0000000000 0.6662149584 0.5069897795 0.8407748211  Biso 1.0 Sb
Sb16 1.0000000000 0.3337850416 0.1745598627 0.8407748211  Biso 1.0 Sb
