# AFLOW.org Repositories
# Co1Sb3   [BCC,BCC,cI32] (STD_PRIM doi:10
data_Co1Sb3
_pd_phase_name Co1Sb3
_cell_length_a  7.8701545619
_cell_length_b  7.8701545619
_cell_length_c  7.8701545619
_cell_angle_alpha  109.4712206345
_cell_angle_beta  109.4712206345
_cell_angle_gamma  109.4712206345
_symmetry_space_group_name_H-M  'P1'
_symmetry_Int_Tables_Number  1
loop_
_symmetry_equiv_pos_site_id
_symmetry_equiv_pos_as_xyz
  1  x,y,z
loop_
 _atom_site_label
 _atom_site_occupancy
 _atom_site_fract_x
 _atom_site_fract_y
 _atom_site_fract_z
 _atom_site_thermal_displace_type
 _atom_site_B_iso_or_equiv
 _atom_site_type_symbol
Co1 1.0000000000 0.0000000000 0.5000000000 0.0000000000  Biso 1.0 Co
Co2 1.0000000000 0.0000000000 0.0000000000 0.5000000000  Biso 1.0 Co
Co3 1.0000000000 0.5000000000 0.5000000000 0.5000000000  Biso 1.0 Co
Co4 1.0000000000 0.5000000000 0.0000000000 0.0000000000  Biso 1.0 Co
Sb5 1.0000000000 0.6660565771 0.1591704896 0.8252270666  Biso 1.0 Sb
Sb6 1.0000000000 0.3339434229 0.1591704896 0.4931139125  Biso 1.0 Sb
Sb7 1.0000000000 0.6660565771 0.8408295104 0.5068860875  Biso 1.0 Sb
Sb8 1.0000000000 0.3339434229 0.8408295104 0.1747729334  Biso 1.0 Sb
Sb9 1.0000000000 0.1591704896 0.4931139125 0.3339434229  Biso 1.0 Sb
Sb10 1.0000000000 0.1591704896 0.8252270666 0.6660565771  Biso 1.0 Sb
Sb11 1.0000000000 0.8408295104 0.1747729334 0.3339434229  Biso 1.0 Sb
Sb12 1.0000000000 0.8408295104 0.5068860875 0.6660565771  Biso 1.0 Sb
Sb13 1.0000000000 0.1747729334 0.3339434229 0.8408295104  Biso 1.0 Sb
Sb14 1.0000000000 0.5068860875 0.6660565771 0.8408295104  Biso 1.0 Sb
Sb15 1.0000000000 0.4931139125 0.3339434229 0.1591704896  Biso 1.0 Sb
Sb16 1.0000000000 0.8252270666 0.6660565771 0.1591704896  Biso 1.0 Sb
