# AFLOW.org Repositories
# Co1Si2Tb1   [ORCC,ORCC,oS16] (STD_PRIM d
data_Co1Si2Tb1
_pd_phase_name Co1Si2Tb1
_cell_length_a  8.2540371318
_cell_length_b  8.2540371318
_cell_length_c  3.9815533873
_cell_angle_alpha  90.0000000000
_cell_angle_beta  90.0000000000
_cell_angle_gamma  151.6770620267
_symmetry_space_group_name_H-M  'P1'
_symmetry_Int_Tables_Number  1
loop_
_symmetry_equiv_pos_site_id
_symmetry_equiv_pos_as_xyz
  1  x,y,z
loop_
 _atom_site_label
 _atom_site_occupancy
 _atom_site_fract_x
 _atom_site_fract_y
 _atom_site_fract_z
 _atom_site_thermal_displace_type
 _atom_site_B_iso_or_equiv
 _atom_site_type_symbol
Co1 1.0000000000 0.6819547837 0.3180452163 0.7500000000  Biso 1.0 Co
Co2 1.0000000000 0.3180452163 0.6819547837 0.2500000000  Biso 1.0 Co
Si3 1.0000000000 0.5439735436 0.4560264564 0.7500000000  Biso 1.0 Si
Si4 1.0000000000 0.4560264564 0.5439735436 0.2500000000  Biso 1.0 Si
Si5 1.0000000000 0.2499270128 0.7500729872 0.7500000000  Biso 1.0 Si
Si6 1.0000000000 0.7500729872 0.2499270128 0.2500000000  Biso 1.0 Si
Tb7 1.0000000000 0.8929377178 0.1070622822 0.7500000000  Biso 1.0 Tb
Tb8 1.0000000000 0.1070622822 0.8929377178 0.2500000000  Biso 1.0 Tb
