# AFLOW.org Repositories
# Co1Y1   [ORCC,ORCC,oS8] (STD_PRIM doi:10
data_Co1Y1
_pd_phase_name Co1Y1
_cell_length_a  6.1547193506
_cell_length_b  6.1547193506
_cell_length_c  4.1082565378
_cell_angle_alpha  90.0000000000
_cell_angle_beta  90.0000000000
_cell_angle_gamma  144.0589777910
_symmetry_space_group_name_H-M  'P1'
_symmetry_Int_Tables_Number  1
loop_
_symmetry_equiv_pos_site_id
_symmetry_equiv_pos_as_xyz
  1  x,y,z
loop_
 _atom_site_label
 _atom_site_occupancy
 _atom_site_fract_x
 _atom_site_fract_y
 _atom_site_fract_z
 _atom_site_thermal_displace_type
 _atom_site_B_iso_or_equiv
 _atom_site_type_symbol
Co1 1.0000000000 0.5684940064 0.4315059936 0.7500000000  Biso 1.0 Co
Co2 1.0000000000 0.4315059936 0.5684940064 0.2500000000  Biso 1.0 Co
Y3 1.0000000000 0.8512670374 0.1487329626 0.7500000000  Biso 1.0 Y
Y4 1.0000000000 0.1487329626 0.8512670374 0.2500000000  Biso 1.0 Y
