# AFLOW.org Repositories
# Co2In1Zr2   [TET,TET,tP10] (STD_PRIM doi
data_Co2In1Zr2
_pd_phase_name Co2In1Zr2
_cell_length_a  7.3456816605
_cell_length_b  7.3456816605
_cell_length_c  3.4123891414
_cell_angle_alpha  90.0000000000
_cell_angle_beta  90.0000000000
_cell_angle_gamma  90.0000000000
_symmetry_space_group_name_H-M  'P1'
_symmetry_Int_Tables_Number  1
loop_
_symmetry_equiv_pos_site_id
_symmetry_equiv_pos_as_xyz
  1  x,y,z
loop_
 _atom_site_label
 _atom_site_occupancy
 _atom_site_fract_x
 _atom_site_fract_y
 _atom_site_fract_z
 _atom_site_thermal_displace_type
 _atom_site_B_iso_or_equiv
 _atom_site_type_symbol
Co1 1.0000000000 0.3817909616 0.8817909616 0.0000000000  Biso 1.0 Co
Co2 1.0000000000 0.6182090384 0.1182090384 0.0000000000  Biso 1.0 Co
Co3 1.0000000000 0.1182090384 0.3817909616 0.0000000000  Biso 1.0 Co
Co4 1.0000000000 0.8817909616 0.6182090384 0.0000000000  Biso 1.0 Co
In5 1.0000000000 0.0000000000 0.0000000000 0.0000000000  Biso 1.0 In
In6 1.0000000000 0.5000000000 0.5000000000 0.0000000000  Biso 1.0 In
Zr7 1.0000000000 0.1730542705 0.6730542705 0.5000000000  Biso 1.0 Zr
Zr8 1.0000000000 0.8269457295 0.3269457295 0.5000000000  Biso 1.0 Zr
Zr9 1.0000000000 0.3269457295 0.1730542705 0.5000000000  Biso 1.0 Zr
Zr10 1.0000000000 0.6730542705 0.8269457295 0.5000000000  Biso 1.0 Zr
