# AFLOW.org Repositories
# Co2S6Ta9   [HEX,HEX,hP17] (STD_PRIM doi:
data_Co2S6Ta9
_pd_phase_name Co2S6Ta9
_cell_length_a  10.3453414672
_cell_length_b  10.3453414672
_cell_length_c  3.3368743324
_cell_angle_alpha  90.0000000000
_cell_angle_beta  90.0000000000
_cell_angle_gamma  120.0000000000
_symmetry_space_group_name_H-M  'P1'
_symmetry_Int_Tables_Number  1
loop_
_symmetry_equiv_pos_site_id
_symmetry_equiv_pos_as_xyz
  1  x,y,z
loop_
 _atom_site_label
 _atom_site_occupancy
 _atom_site_fract_x
 _atom_site_fract_y
 _atom_site_fract_z
 _atom_site_thermal_displace_type
 _atom_site_B_iso_or_equiv
 _atom_site_type_symbol
Co1 1.0000000000 0.6666786499 0.3333493283 0.0000000000  Biso 1.0 Co
Co2 1.0000000000 0.3333293216 0.6666506717 0.0000000000  Biso 1.0 Co
S3 1.0000000000 0.0000000000 0.7268592299 0.5000000000  Biso 1.0 S
S4 1.0000000000 0.2731407701 0.2731407701 0.5000000000  Biso 1.0 S
S5 1.0000000000 0.7268491388 0.0000000000 0.5000000000  Biso 1.0 S
S6 1.0000000000 0.0000000000 0.2935318619 0.0000000000  Biso 1.0 S
S7 1.0000000000 0.7064681381 0.7064681381 0.0000000000  Biso 1.0 S
S8 1.0000000000 0.2935404775 0.0000000000 0.0000000000  Biso 1.0 S
Ta9 1.0000000000 0.0000000000 0.5430980104 0.0000000000  Biso 1.0 Ta
Ta10 1.0000000000 0.4569019896 0.4569019896 0.0000000000  Biso 1.0 Ta
Ta11 1.0000000000 0.5430955857 0.0000000000 0.0000000000  Biso 1.0 Ta
Ta12 1.0000000000 0.7376544603 0.5356408176 0.5000000000  Biso 1.0 Ta
Ta13 1.0000000000 0.4643729864 0.2020251576 0.5000000000  Biso 1.0 Ta
Ta14 1.0000000000 0.7979823091 0.2623590568 0.5000000000  Biso 1.0 Ta
Ta15 1.0000000000 0.2020136427 0.4643591824 0.5000000000  Biso 1.0 Ta
Ta16 1.0000000000 0.2623478288 0.7979748424 0.5000000000  Biso 1.0 Ta
Ta17 1.0000000000 0.5356232524 0.7376409432 0.5000000000  Biso 1.0 Ta
