# AFLOW.org Repositories
# Cr1Ge1Nb1   [HEX,HEX,hP9] (STD_PRIM doi:
data_Cr1Ge1Nb1
_pd_phase_name Cr1Ge1Nb1
_cell_length_a  6.8248949825
_cell_length_b  6.8248949825
_cell_length_c  3.3580805131
_cell_angle_alpha  90.0000000000
_cell_angle_beta  90.0000000000
_cell_angle_gamma  120.0000000000
_symmetry_space_group_name_H-M  'P1'
_symmetry_Int_Tables_Number  1
loop_
_symmetry_equiv_pos_site_id
_symmetry_equiv_pos_as_xyz
  1  x,y,z
loop_
 _atom_site_label
 _atom_site_occupancy
 _atom_site_fract_x
 _atom_site_fract_y
 _atom_site_fract_z
 _atom_site_thermal_displace_type
 _atom_site_B_iso_or_equiv
 _atom_site_type_symbol
Cr1 1.0000000000 0.7403448474 0.7403448474 0.0000000000  Biso 1.0 Cr
Cr2 1.0000000000 0.2596640662 0.0000000000 0.0000000000  Biso 1.0 Cr
Cr3 1.0000000000 0.0000000000 0.2596349125 0.0000000000  Biso 1.0 Cr
Ge4 1.0000000000 0.3332346058 0.6665832681 0.0000000000  Biso 1.0 Ge
Ge5 1.0000000000 0.6667653942 0.3333486623 0.0000000000  Biso 1.0 Ge
Ge6 1.0000000000 0.0000000000 0.0000000000 0.5000000000  Biso 1.0 Ge
Nb7 1.0000000000 0.4011764159 0.4011764159 0.5000000000  Biso 1.0 Nb
Nb8 1.0000000000 0.5988959274 0.0000000000 0.5000000000  Biso 1.0 Nb
Nb9 1.0000000000 0.0000000000 0.5989269122 0.5000000000  Biso 1.0 Nb
