# AFLOW.org Repositories
# Cr1N3Sr3   [HEX,HEX,hP14] (STD_PRIM doi:
data_Cr1N3Sr3
_pd_phase_name Cr1N3Sr3
_cell_length_a  7.8100381365
_cell_length_b  7.8100381365
_cell_length_c  5.2547504625
_cell_angle_alpha  90.0000000000
_cell_angle_beta  90.0000000000
_cell_angle_gamma  120.0000000000
_symmetry_space_group_name_H-M  'P1'
_symmetry_Int_Tables_Number  1
loop_
_symmetry_equiv_pos_site_id
_symmetry_equiv_pos_as_xyz
  1  x,y,z
loop_
 _atom_site_label
 _atom_site_occupancy
 _atom_site_fract_x
 _atom_site_fract_y
 _atom_site_fract_z
 _atom_site_thermal_displace_type
 _atom_site_B_iso_or_equiv
 _atom_site_type_symbol
Cr1 1.0000000000 0.6665578496 0.3333592256 0.7500000000  Biso 1.0 Cr
Cr2 1.0000000000 0.3334421504 0.6666407744 0.2500000000  Biso 1.0 Cr
N3 1.0000000000 0.4346326057 0.3142417669 0.7500000000  Biso 1.0 N
N4 1.0000000000 0.6857485161 0.1204042379 0.7500000000  Biso 1.0 N
N5 1.0000000000 0.8795907419 0.5653671802 0.7500000000  Biso 1.0 N
N6 1.0000000000 0.5653673943 0.6857582331 0.2500000000  Biso 1.0 N
N7 1.0000000000 0.3142514839 0.8795957621 0.2500000000  Biso 1.0 N
N8 1.0000000000 0.1204092581 0.4346328198 0.2500000000  Biso 1.0 N
Sr9 1.0000000000 0.3566837768 0.2719735119 0.2500000000  Biso 1.0 Sr
Sr10 1.0000000000 0.7280219543 0.0847099899 0.2500000000  Biso 1.0 Sr
Sr11 1.0000000000 0.9153063401 0.6433184747 0.2500000000  Biso 1.0 Sr
Sr12 1.0000000000 0.6433162232 0.7280264881 0.7500000000  Biso 1.0 Sr
Sr13 1.0000000000 0.2719780457 0.9152900101 0.7500000000  Biso 1.0 Sr
Sr14 1.0000000000 0.0846936599 0.3566815253 0.7500000000  Biso 1.0 Sr
