# AFLOW.org Repositories
# Cr1O4V1   [ORCC,ORCC,oS24] (STD_PRIM doi
data_Cr1O4V1
_pd_phase_name Cr1O4V1
_cell_length_a  5.0492077225
_cell_length_b  5.0492077225
_cell_length_c  6.1936811574
_cell_angle_alpha  90.0000000000
_cell_angle_beta  90.0000000000
_cell_angle_gamma  111.8520575699
_symmetry_space_group_name_H-M  'P1'
_symmetry_Int_Tables_Number  1
loop_
_symmetry_equiv_pos_site_id
_symmetry_equiv_pos_as_xyz
  1  x,y,z
loop_
 _atom_site_label
 _atom_site_occupancy
 _atom_site_fract_x
 _atom_site_fract_y
 _atom_site_fract_z
 _atom_site_thermal_displace_type
 _atom_site_B_iso_or_equiv
 _atom_site_type_symbol
Cr1 1.0000000000 0.0000000000 0.0000000000 0.0000000000  Biso 1.0 Cr
Cr2 1.0000000000 0.0000000000 0.0000000000 0.5000000000  Biso 1.0 Cr
O3 1.0000000000 0.2373178515 0.7626821485 0.0322009963  Biso 1.0 O
O4 1.0000000000 0.7626821485 0.2373178515 0.5322009963  Biso 1.0 O
O5 1.0000000000 0.2373178515 0.7626821485 0.4677990037  Biso 1.0 O
O6 1.0000000000 0.7626821485 0.2373178515 0.9677990037  Biso 1.0 O
O7 1.0000000000 0.7457520671 0.7891463743 0.2500000000  Biso 1.0 O
O8 1.0000000000 0.2542479329 0.2108536257 0.7500000000  Biso 1.0 O
O9 1.0000000000 0.2108536257 0.2542479329 0.2500000000  Biso 1.0 O
O10 1.0000000000 0.7891463743 0.7457520671 0.7500000000  Biso 1.0 O
V11 1.0000000000 0.3575935316 0.6424064684 0.2500000000  Biso 1.0 V
V12 1.0000000000 0.6424064684 0.3575935316 0.7500000000  Biso 1.0 V
