# AFLOW.org Repositories
# Cr2Hg1O4   [FCC,FCC,cF56] (STD_PRIM doi:
data_Cr2Hg1O4
_pd_phase_name Cr2Hg1O4
_cell_length_a  6.2558082258
_cell_length_b  6.2558082258
_cell_length_c  6.2558082258
_cell_angle_alpha  60.0000000000
_cell_angle_beta  60.0000000000
_cell_angle_gamma  60.0000000000
_symmetry_space_group_name_H-M  'P1'
_symmetry_Int_Tables_Number  1
loop_
_symmetry_equiv_pos_site_id
_symmetry_equiv_pos_as_xyz
  1  x,y,z
loop_
 _atom_site_label
 _atom_site_occupancy
 _atom_site_fract_x
 _atom_site_fract_y
 _atom_site_fract_z
 _atom_site_thermal_displace_type
 _atom_site_B_iso_or_equiv
 _atom_site_type_symbol
Cr1 1.0000000000 0.0000000000 0.0000000000 0.0000000000  Biso 1.0 Cr
Cr2 1.0000000000 0.0000000000 0.5000000000 0.0000000000  Biso 1.0 Cr
Cr3 1.0000000000 0.0000000000 0.0000000000 0.5000000000  Biso 1.0 Cr
Cr4 1.0000000000 0.5000000000 0.0000000000 0.0000000000  Biso 1.0 Cr
Hg5 1.0000000000 0.6250000000 0.6250000000 0.6250000000  Biso 1.0 Hg
Hg6 1.0000000000 0.3750000000 0.3750000000 0.3750000000  Biso 1.0 Hg
O7 1.0000000000 0.7708388094 0.7708388094 0.7708388094  Biso 1.0 O
O8 1.0000000000 0.7708388094 0.1874835718 0.7708388094  Biso 1.0 O
O9 1.0000000000 0.7708388094 0.7708388094 0.1874835718  Biso 1.0 O
O10 1.0000000000 0.1874835718 0.7708388094 0.7708388094  Biso 1.0 O
O11 1.0000000000 0.2291611906 0.8125164282 0.2291611906  Biso 1.0 O
O12 1.0000000000 0.2291611906 0.2291611906 0.2291611906  Biso 1.0 O
O13 1.0000000000 0.2291611906 0.2291611906 0.8125164282  Biso 1.0 O
O14 1.0000000000 0.8125164282 0.2291611906 0.2291611906  Biso 1.0 O
