# AFLOW.org Repositories
# Cr2Mn1O4   [FCC,FCC,cF56] (STD_PRIM doi:
data_Cr2Mn1O4
_pd_phase_name Cr2Mn1O4
_cell_length_a  6.0872013314
_cell_length_b  6.0872013314
_cell_length_c  6.0872013314
_cell_angle_alpha  60.0000000000
_cell_angle_beta  60.0000000000
_cell_angle_gamma  60.0000000000
_symmetry_space_group_name_H-M  'P1'
_symmetry_Int_Tables_Number  1
loop_
_symmetry_equiv_pos_site_id
_symmetry_equiv_pos_as_xyz
  1  x,y,z
loop_
 _atom_site_label
 _atom_site_occupancy
 _atom_site_fract_x
 _atom_site_fract_y
 _atom_site_fract_z
 _atom_site_thermal_displace_type
 _atom_site_B_iso_or_equiv
 _atom_site_type_symbol
Cr1 1.0000000000 0.6250000000 0.6250000000 0.6250000000  Biso 1.0 Cr
Cr2 1.0000000000 0.1250000000 0.6250000000 0.6250000000  Biso 1.0 Cr
Cr3 1.0000000000 0.6250000000 0.6250000000 0.1250000000  Biso 1.0 Cr
Cr4 1.0000000000 0.6250000000 0.1250000000 0.6250000000  Biso 1.0 Cr
Mn5 1.0000000000 0.0000000000 0.0000000000 0.0000000000  Biso 1.0 Mn
Mn6 1.0000000000 0.2500000000 0.2500000000 0.2500000000  Biso 1.0 Mn
O7 1.0000000000 0.3889512600 0.3889512600 0.3889512600  Biso 1.0 O
O8 1.0000000000 0.8331462201 0.3889512600 0.3889512600  Biso 1.0 O
O9 1.0000000000 0.3889512600 0.3889512600 0.8331462201  Biso 1.0 O
O10 1.0000000000 0.3889512600 0.8331462201 0.3889512600  Biso 1.0 O
O11 1.0000000000 0.4168537799 0.8610487400 0.8610487400  Biso 1.0 O
O12 1.0000000000 0.8610487400 0.8610487400 0.8610487400  Biso 1.0 O
O13 1.0000000000 0.8610487400 0.8610487400 0.4168537799  Biso 1.0 O
O14 1.0000000000 0.8610487400 0.4168537799 0.8610487400  Biso 1.0 O
