# AFLOW.org Repositories
# Cr2O6Te1   [TET,TET,tP18] (STD_PRIM doi:
data_Cr2O6Te1
_pd_phase_name Cr2O6Te1
_cell_length_a  4.6234235240
_cell_length_b  4.6234235240
_cell_length_c  9.2097684267
_cell_angle_alpha  90.0000000000
_cell_angle_beta  90.0000000000
_cell_angle_gamma  90.0000000000
_symmetry_space_group_name_H-M  'P1'
_symmetry_Int_Tables_Number  1
loop_
_symmetry_equiv_pos_site_id
_symmetry_equiv_pos_as_xyz
  1  x,y,z
loop_
 _atom_site_label
 _atom_site_occupancy
 _atom_site_fract_x
 _atom_site_fract_y
 _atom_site_fract_z
 _atom_site_thermal_displace_type
 _atom_site_B_iso_or_equiv
 _atom_site_type_symbol
Cr1 1.0000000000 0.0000000000 0.0000000000 0.3343751151  Biso 1.0 Cr
Cr2 1.0000000000 0.5000000000 0.5000000000 0.8343751151  Biso 1.0 Cr
Cr3 1.0000000000 0.5000000000 0.5000000000 0.1656248849  Biso 1.0 Cr
Cr4 1.0000000000 0.0000000000 0.0000000000 0.6656248849  Biso 1.0 Cr
O5 1.0000000000 0.3007839665 0.3007839665 0.0000000000  Biso 1.0 O
O6 1.0000000000 0.6992160335 0.6992160335 0.0000000000  Biso 1.0 O
O7 1.0000000000 0.1992160335 0.8007839665 0.5000000000  Biso 1.0 O
O8 1.0000000000 0.8007839665 0.1992160335 0.5000000000  Biso 1.0 O
O9 1.0000000000 0.3083677992 0.3083677992 0.3372554995  Biso 1.0 O
O10 1.0000000000 0.6916322008 0.6916322008 0.3372554995  Biso 1.0 O
O11 1.0000000000 0.1916322008 0.8083677992 0.8372554995  Biso 1.0 O
O12 1.0000000000 0.8083677992 0.1916322008 0.8372554995  Biso 1.0 O
O13 1.0000000000 0.1916322008 0.8083677992 0.1627445005  Biso 1.0 O
O14 1.0000000000 0.8083677992 0.1916322008 0.1627445005  Biso 1.0 O
O15 1.0000000000 0.3083677992 0.3083677992 0.6627445005  Biso 1.0 O
O16 1.0000000000 0.6916322008 0.6916322008 0.6627445005  Biso 1.0 O
Te17 1.0000000000 0.0000000000 0.0000000000 0.0000000000  Biso 1.0 Te
Te18 1.0000000000 0.5000000000 0.5000000000 0.5000000000  Biso 1.0 Te
