# AFLOW.org Repositories
# Cs1F2H1   [BCT,BCT2,tI16] (STD_PRIM doi:
data_Cs1F2H1
_pd_phase_name Cs1F2H1
_cell_length_a  5.9262058423
_cell_length_b  5.9262058423
_cell_length_c  5.9262058423
_cell_angle_alpha  116.5321869157
_cell_angle_beta  116.5321869157
_cell_angle_gamma  96.1193010199
_symmetry_space_group_name_H-M  'P1'
_symmetry_Int_Tables_Number  1
loop_
_symmetry_equiv_pos_site_id
_symmetry_equiv_pos_as_xyz
  1  x,y,z
loop_
 _atom_site_label
 _atom_site_occupancy
 _atom_site_fract_x
 _atom_site_fract_y
 _atom_site_fract_z
 _atom_site_thermal_displace_type
 _atom_site_B_iso_or_equiv
 _atom_site_type_symbol
Cs1 1.0000000000 0.2500000000 0.2500000000 0.0000000000  Biso 1.0 Cs
Cs2 1.0000000000 0.7500000000 0.7500000000 0.0000000000  Biso 1.0 Cs
F3 1.0000000000 0.8690661339 0.6309338661 0.5000000000  Biso 1.0 F
F4 1.0000000000 0.1309338661 0.3690661339 0.5000000000  Biso 1.0 F
F5 1.0000000000 0.6309338661 0.1309338661 0.7618677322  Biso 1.0 F
F6 1.0000000000 0.3690661339 0.8690661339 0.2381322678  Biso 1.0 F
H7 1.0000000000 0.0000000000 0.5000000000 0.5000000000  Biso 1.0 H
H8 1.0000000000 0.5000000000 0.0000000000 0.5000000000  Biso 1.0 H
