# AFLOW.org Repositories
# Cs3I9Sb2   [HEX,HEX,hP14] (STD_PRIM doi:
data_Cs3I9Sb2
_pd_phase_name Cs3I9Sb2
_cell_length_a  8.6698830561
_cell_length_b  8.6698830561
_cell_length_c  10.6041918775
_cell_angle_alpha  90.0000000000
_cell_angle_beta  90.0000000000
_cell_angle_gamma  120.0000000000
_symmetry_space_group_name_H-M  'P1'
_symmetry_Int_Tables_Number  1
loop_
_symmetry_equiv_pos_site_id
_symmetry_equiv_pos_as_xyz
  1  x,y,z
loop_
 _atom_site_label
 _atom_site_occupancy
 _atom_site_fract_x
 _atom_site_fract_y
 _atom_site_fract_z
 _atom_site_thermal_displace_type
 _atom_site_B_iso_or_equiv
 _atom_site_type_symbol
Cs1 1.0000000000 0.0000000000 0.0000000000 0.0000000000  Biso 1.0 Cs
Cs2 1.0000000000 0.6666843816 0.3333156122 0.6739500884  Biso 1.0 Cs
Cs3 1.0000000000 0.3333156184 0.6666843878 0.3260499116  Biso 1.0 Cs
I4 1.0000000000 0.5000000000 0.5000000000 0.0000000000  Biso 1.0 I
I5 1.0000000000 0.5000000000 0.0000000000 0.0000000000  Biso 1.0 I
I6 1.0000000000 0.0000000000 0.5000000000 0.0000000000  Biso 1.0 I
I7 1.0000000000 0.1705441499 0.8294558576 0.6649596594  Biso 1.0 I
I8 1.0000000000 0.1705478777 0.3410970043 0.6649561869  Biso 1.0 I
I9 1.0000000000 0.6589027558 0.8294520181 0.6649562005  Biso 1.0 I
I10 1.0000000000 0.8294558501 0.1705441424 0.3350403406  Biso 1.0 I
I11 1.0000000000 0.3410972442 0.1705479819 0.3350437995  Biso 1.0 I
I12 1.0000000000 0.8294521223 0.6589029957 0.3350438131  Biso 1.0 I
Sb13 1.0000000000 0.6666675578 0.3333324635 0.1857553527  Biso 1.0 Sb
Sb14 1.0000000000 0.3333324422 0.6666675365 0.8142446473  Biso 1.0 Sb
