# AFLOW.org Repositories
# Cu1F4Sr1   [BCT,BCT2,tI24] (STD_PRIM doi
data_Cu1F4Sr1
_pd_phase_name Cu1F4Sr1
_cell_length_a  6.7235565599
_cell_length_b  6.7235565599
_cell_length_c  6.7235565599
_cell_angle_alpha  129.5288706795
_cell_angle_beta  129.5288706795
_cell_angle_gamma  74.1610738822
_symmetry_space_group_name_H-M  'P1'
_symmetry_Int_Tables_Number  1
loop_
_symmetry_equiv_pos_site_id
_symmetry_equiv_pos_as_xyz
  1  x,y,z
loop_
 _atom_site_label
 _atom_site_occupancy
 _atom_site_fract_x
 _atom_site_fract_y
 _atom_site_fract_z
 _atom_site_thermal_displace_type
 _atom_site_B_iso_or_equiv
 _atom_site_type_symbol
Cu1 1.0000000000 0.5000000000 0.0000000000 0.5000000000  Biso 1.0 Cu
Cu2 1.0000000000 0.0000000000 0.5000000000 0.5000000000  Biso 1.0 Cu
F3 1.0000000000 0.2058398132 0.0453705833 0.5000000000  Biso 1.0 F
F4 1.0000000000 0.5453705833 0.7058398132 0.5000000000  Biso 1.0 F
F5 1.0000000000 0.7058398132 0.2058398132 0.1604692299  Biso 1.0 F
F6 1.0000000000 0.0453705833 0.5453705833 0.8395307701  Biso 1.0 F
F7 1.0000000000 0.9546294167 0.4546294167 0.1604692299  Biso 1.0 F
F8 1.0000000000 0.2941601868 0.7941601868 0.8395307701  Biso 1.0 F
F9 1.0000000000 0.4546294167 0.2941601868 0.5000000000  Biso 1.0 F
F10 1.0000000000 0.7941601868 0.9546294167 0.5000000000  Biso 1.0 F
Sr11 1.0000000000 0.7500000000 0.7500000000 0.0000000000  Biso 1.0 Sr
Sr12 1.0000000000 0.2500000000 0.2500000000 0.0000000000  Biso 1.0 Sr
