# AFLOW.org Repositories
# Cu1Hf5Pb3                               
data_Cu1Hf5Pb3
_pd_phase_name Cu1Hf5Pb3
_cell_length_a  8.7115646311
_cell_length_b  8.7115646311
_cell_length_c  5.8836153727
_cell_angle_alpha  90.0000000000
_cell_angle_beta  90.0000000000
_cell_angle_gamma  120.0000000000
_symmetry_space_group_name_H-M  'P1'
_symmetry_Int_Tables_Number  1
loop_
_symmetry_equiv_pos_site_id
_symmetry_equiv_pos_as_xyz
  1  x,y,z
loop_
 _atom_site_label
 _atom_site_occupancy
 _atom_site_fract_x
 _atom_site_fract_y
 _atom_site_fract_z
 _atom_site_thermal_displace_type
 _atom_site_B_iso_or_equiv
 _atom_site_type_symbol
Cu1 1.0000000000 0.0000000000 0.0000000000 0.0000000000  Biso 1.0 Cu
Cu2 1.0000000000 0.0000000000 0.0000000000 0.5000000000  Biso 1.0 Cu
Hf3 1.0000000000 0.3333141456 0.6666858544 0.0000000000  Biso 1.0 Hf
Hf4 1.0000000000 0.6666858544 0.3333141456 0.5000000000  Biso 1.0 Hf
Hf5 1.0000000000 0.6666858544 0.3333141456 0.0000000000  Biso 1.0 Hf
Hf6 1.0000000000 0.3333141456 0.6666858544 0.5000000000  Biso 1.0 Hf
Hf7 1.0000000000 0.2595125841 0.0000000000 0.2500000000  Biso 1.0 Hf
Hf8 1.0000000000 0.0000000000 0.2595125841 0.2500000000  Biso 1.0 Hf
Hf9 1.0000000000 0.7404537895 0.7404537895 0.2500000000  Biso 1.0 Hf
Hf10 1.0000000000 0.7404874159 0.0000000000 0.7500000000  Biso 1.0 Hf
Hf11 1.0000000000 0.0000000000 0.7404874159 0.7500000000  Biso 1.0 Hf
Hf12 1.0000000000 0.2595462105 0.2595462105 0.7500000000  Biso 1.0 Hf
Pb13 1.0000000000 0.6131157176 0.0000000000 0.2500000000  Biso 1.0 Pb
Pb14 1.0000000000 0.0000000000 0.6131157176 0.2500000000  Biso 1.0 Pb
Pb15 1.0000000000 0.3868904415 0.3868904415 0.2500000000  Biso 1.0 Pb
Pb16 1.0000000000 0.3868842824 0.0000000000 0.7500000000  Biso 1.0 Pb
Pb17 1.0000000000 0.0000000000 0.3868842824 0.7500000000  Biso 1.0 Pb
Pb18 1.0000000000 0.6131095585 0.6131095585 0.7500000000  Biso 1.0 Pb
