# AFLOW.org Repositories
# Cu2O3Sr1   [ORCC,ORCC,oS12] (STD_PRIM do
data_Cu2O3Sr1
_pd_phase_name Cu2O3Sr1
_cell_length_a  6.1260003570
_cell_length_b  6.1260003570
_cell_length_c  3.5448578735
_cell_angle_alpha  90.0000000000
_cell_angle_beta  90.0000000000
_cell_angle_gamma  142.1683300872
_symmetry_space_group_name_H-M  'P1'
_symmetry_Int_Tables_Number  1
loop_
_symmetry_equiv_pos_site_id
_symmetry_equiv_pos_as_xyz
  1  x,y,z
loop_
 _atom_site_label
 _atom_site_occupancy
 _atom_site_fract_x
 _atom_site_fract_y
 _atom_site_fract_z
 _atom_site_thermal_displace_type
 _atom_site_B_iso_or_equiv
 _atom_site_type_symbol
Cu1 1.0000000000 0.6658595845 0.3341404155 0.0000000000  Biso 1.0 Cu
Cu2 1.0000000000 0.3341404155 0.6658595845 0.0000000000  Biso 1.0 Cu
O3 1.0000000000 0.5000000000 0.5000000000 0.0000000000  Biso 1.0 O
O4 1.0000000000 0.8309980372 0.1690019628 0.0000000000  Biso 1.0 O
O5 1.0000000000 0.1690019628 0.8309980372 0.0000000000  Biso 1.0 O
Sr6 1.0000000000 0.0000000000 0.0000000000 0.5000000000  Biso 1.0 Sr
