# AFLOW.org Repositories
# Cu3P1S4   [ORC,ORC,oP16] (STD_PRIM doi:1
data_Cu3P1S4
_pd_phase_name Cu3P1S4
_cell_length_a  6.0976461865
_cell_length_b  6.3699505408
_cell_length_c  7.3090610833
_cell_angle_alpha  90.0000000000
_cell_angle_beta  90.0000000000
_cell_angle_gamma  90.0000000000
_symmetry_space_group_name_H-M  'P1'
_symmetry_Int_Tables_Number  1
loop_
_symmetry_equiv_pos_site_id
_symmetry_equiv_pos_as_xyz
  1  x,y,z
loop_
 _atom_site_label
 _atom_site_occupancy
 _atom_site_fract_x
 _atom_site_fract_y
 _atom_site_fract_z
 _atom_site_thermal_displace_type
 _atom_site_B_iso_or_equiv
 _atom_site_type_symbol
Cu1 1.0000000000 0.0982481404 0.3514784342 0.0000000000  Biso 1.0 Cu
Cu2 1.0000000000 0.5982481404 0.6485215658 0.5000000000  Biso 1.0 Cu
Cu3 1.0000000000 0.0875929396 0.8222301734 0.7454637367  Biso 1.0 Cu
Cu4 1.0000000000 0.5875929396 0.1777698266 0.7545362633  Biso 1.0 Cu
Cu5 1.0000000000 0.5875929396 0.1777698266 0.2454637367  Biso 1.0 Cu
Cu6 1.0000000000 0.0875929396 0.8222301734 0.2545362633  Biso 1.0 Cu
P7 1.0000000000 0.5979867505 0.6762541028 0.0000000000  Biso 1.0 P
P8 1.0000000000 0.0979867505 0.3237458972 0.5000000000  Biso 1.0 P
S9 1.0000000000 0.2564514865 0.6815718977 0.0000000000  Biso 1.0 S
S10 1.0000000000 0.7564514865 0.3184281023 0.5000000000  Biso 1.0 S
S11 1.0000000000 0.7182975955 0.3698016110 0.0000000000  Biso 1.0 S
S12 1.0000000000 0.2182975955 0.6301983890 0.5000000000  Biso 1.0 S
S13 1.0000000000 0.2115350740 0.1677466957 0.7347962452  Biso 1.0 S
S14 1.0000000000 0.7115350740 0.8322533043 0.7652037548  Biso 1.0 S
S15 1.0000000000 0.7115350740 0.8322533043 0.2347962452  Biso 1.0 S
S16 1.0000000000 0.2115350740 0.1677466957 0.2652037548  Biso 1.0 S
