# AFLOW.org Repositories
# Dy1Ga1Pd1   [ORC,ORC,oP12] (STD_PRIM doi
data_Dy1Ga1Pd1
_pd_phase_name Dy1Ga1Pd1
_cell_length_a  4.4764780457
_cell_length_b  6.9281329814
_cell_length_c  7.6352620901
_cell_angle_alpha  90.0000000000
_cell_angle_beta  90.0000000000
_cell_angle_gamma  90.0000000000
_symmetry_space_group_name_H-M  'P1'
_symmetry_Int_Tables_Number  1
loop_
_symmetry_equiv_pos_site_id
_symmetry_equiv_pos_as_xyz
  1  x,y,z
loop_
 _atom_site_label
 _atom_site_occupancy
 _atom_site_fract_x
 _atom_site_fract_y
 _atom_site_fract_z
 _atom_site_thermal_displace_type
 _atom_site_B_iso_or_equiv
 _atom_site_type_symbol
Dy1 1.0000000000 0.2500000000 0.9783462707 0.3046161652  Biso 1.0 Dy
Dy2 1.0000000000 0.7500000000 0.5216537293 0.8046161652  Biso 1.0 Dy
Dy3 1.0000000000 0.7500000000 0.0216537293 0.6953838348  Biso 1.0 Dy
Dy4 1.0000000000 0.2500000000 0.4783462707 0.1953838348  Biso 1.0 Dy
Ga5 1.0000000000 0.2500000000 0.3272398194 0.5751117074  Biso 1.0 Ga
Ga6 1.0000000000 0.7500000000 0.1727601806 0.0751117074  Biso 1.0 Ga
Ga7 1.0000000000 0.7500000000 0.6727601806 0.4248882926  Biso 1.0 Ga
Ga8 1.0000000000 0.2500000000 0.8272398194 0.9248882926  Biso 1.0 Ga
Pd9 1.0000000000 0.2500000000 0.2191185828 0.9020895262  Biso 1.0 Pd
Pd10 1.0000000000 0.7500000000 0.2808814172 0.4020895262  Biso 1.0 Pd
Pd11 1.0000000000 0.7500000000 0.7808814172 0.0979104738  Biso 1.0 Pd
Pd12 1.0000000000 0.2500000000 0.7191185828 0.5979104738  Biso 1.0 Pd
