# AFLOW.org Repositories
# Dy1Ge1Li1   [HEX,HEX,hP9] (STD_PRIM doi:
data_Dy1Ge1Li1
_pd_phase_name Dy1Ge1Li1
_cell_length_a  7.0631700833
_cell_length_b  7.0631700833
_cell_length_c  4.2473790276
_cell_angle_alpha  90.0000000000
_cell_angle_beta  90.0000000000
_cell_angle_gamma  120.0000000000
_symmetry_space_group_name_H-M  'P1'
_symmetry_Int_Tables_Number  1
loop_
_symmetry_equiv_pos_site_id
_symmetry_equiv_pos_as_xyz
  1  x,y,z
loop_
 _atom_site_label
 _atom_site_occupancy
 _atom_site_fract_x
 _atom_site_fract_y
 _atom_site_fract_z
 _atom_site_thermal_displace_type
 _atom_site_B_iso_or_equiv
 _atom_site_type_symbol
Dy1 1.0000000000 0.5784113157 0.0000000000 0.0000000000  Biso 1.0 Dy
Dy2 1.0000000000 0.0000000000 0.5784113157 0.0000000000  Biso 1.0 Dy
Dy3 1.0000000000 0.4215961634 0.4215961634 0.0000000000  Biso 1.0 Dy
Ge4 1.0000000000 0.0000000000 0.0000000000 0.0000000000  Biso 1.0 Ge
Ge5 1.0000000000 0.3333021859 0.6666963390 0.5000000000  Biso 1.0 Ge
Ge6 1.0000000000 0.6666963390 0.3333021859 0.5000000000  Biso 1.0 Ge
Li7 1.0000000000 0.2344817386 0.0000000000 0.5000000000  Biso 1.0 Li
Li8 1.0000000000 0.0000000000 0.2344817386 0.5000000000  Biso 1.0 Li
Li9 1.0000000000 0.7655076693 0.7655076693 0.5000000000  Biso 1.0 Li
