# AFLOW.org Repositories
# Dy1In1Ir1   [HEX,HEX,hP9] (STD_PRIM doi:
data_Dy1In1Ir1
_pd_phase_name Dy1In1Ir1
_cell_length_a  7.4489864614
_cell_length_b  7.4489864614
_cell_length_c  3.9634391083
_cell_angle_alpha  90.0000000000
_cell_angle_beta  90.0000000000
_cell_angle_gamma  120.0000000000
_symmetry_space_group_name_H-M  'P1'
_symmetry_Int_Tables_Number  1
loop_
_symmetry_equiv_pos_site_id
_symmetry_equiv_pos_as_xyz
  1  x,y,z
loop_
 _atom_site_label
 _atom_site_occupancy
 _atom_site_fract_x
 _atom_site_fract_y
 _atom_site_fract_z
 _atom_site_thermal_displace_type
 _atom_site_B_iso_or_equiv
 _atom_site_type_symbol
Dy1 1.0000000000 0.5944630126 0.5944630126 0.0000000000  Biso 1.0 Dy
Dy2 1.0000000000 0.4055399289 0.0000000000 0.0000000000  Biso 1.0 Dy
Dy3 1.0000000000 0.0000000000 0.4055405896 0.0000000000  Biso 1.0 Dy
In4 1.0000000000 0.2556785335 0.2556785335 0.5000000000  Biso 1.0 In
In5 1.0000000000 0.7443179471 0.0000000000 0.5000000000  Biso 1.0 In
In6 1.0000000000 0.0000000000 0.7443141126 0.5000000000  Biso 1.0 In
Ir7 1.0000000000 0.6666476676 0.3333273720 0.5000000000  Biso 1.0 Ir
Ir8 1.0000000000 0.3333523324 0.6666797044 0.5000000000  Biso 1.0 Ir
Ir9 1.0000000000 0.0000000000 0.0000000000 0.0000000000  Biso 1.0 Ir
