# AFLOW.org Repositories
# Dy1Mg1Sn1   [BCT,BCT2,tI12] (STD_PRIM do
data_Dy1Mg1Sn1
_pd_phase_name Dy1Mg1Sn1
_cell_length_a  8.5811644715
_cell_length_b  8.5811644715
_cell_length_c  8.5811644715
_cell_angle_alpha  150.1706051679
_cell_angle_beta  150.1706051679
_cell_angle_gamma  42.6910307976
_symmetry_space_group_name_H-M  'P1'
_symmetry_Int_Tables_Number  1
loop_
_symmetry_equiv_pos_site_id
_symmetry_equiv_pos_as_xyz
  1  x,y,z
loop_
 _atom_site_label
 _atom_site_occupancy
 _atom_site_fract_x
 _atom_site_fract_y
 _atom_site_fract_z
 _atom_site_thermal_displace_type
 _atom_site_B_iso_or_equiv
 _atom_site_type_symbol
Dy1 1.0000000000 0.3334409098 0.3334409098 0.0000000000  Biso 1.0 Dy
Dy2 1.0000000000 0.6665590902 0.6665590902 0.0000000000  Biso 1.0 Dy
Mg3 1.0000000000 0.5000000000 0.0000000000 0.5000000000  Biso 1.0 Mg
Mg4 1.0000000000 0.0000000000 0.5000000000 0.5000000000  Biso 1.0 Mg
Sn5 1.0000000000 0.1368615716 0.1368615716 0.0000000000  Biso 1.0 Sn
Sn6 1.0000000000 0.8631384284 0.8631384284 0.0000000000  Biso 1.0 Sn
