# AFLOW.org Repositories
# Dy1Os2   [HEX,HEX,hP12] (STD_PRIM doi:10
data_Dy1Os2
_pd_phase_name Dy1Os2
_cell_length_a  5.2711606660
_cell_length_b  5.2711606660
_cell_length_c  8.9933692568
_cell_angle_alpha  90.0000000000
_cell_angle_beta  90.0000000000
_cell_angle_gamma  120.0000000000
_symmetry_space_group_name_H-M  'P1'
_symmetry_Int_Tables_Number  1
loop_
_symmetry_equiv_pos_site_id
_symmetry_equiv_pos_as_xyz
  1  x,y,z
loop_
 _atom_site_label
 _atom_site_occupancy
 _atom_site_fract_x
 _atom_site_fract_y
 _atom_site_fract_z
 _atom_site_thermal_displace_type
 _atom_site_B_iso_or_equiv
 _atom_site_type_symbol
Dy1 1.0000000000 0.6666701854 0.3333403708 0.0654024252  Biso 1.0 Dy
Dy2 1.0000000000 0.3333298146 0.6666596292 0.5654024252  Biso 1.0 Dy
Dy3 1.0000000000 0.3333298146 0.6666596292 0.9345975748  Biso 1.0 Dy
Dy4 1.0000000000 0.6666701854 0.3333403708 0.4345975748  Biso 1.0 Dy
Os5 1.0000000000 0.0000000000 0.0000000000 0.0000000000  Biso 1.0 Os
Os6 1.0000000000 0.0000000000 0.0000000000 0.5000000000  Biso 1.0 Os
Os7 1.0000000000 0.6588894617 0.8294564987 0.2500000000  Biso 1.0 Os
Os8 1.0000000000 0.1705670370 0.8294564987 0.2500000000  Biso 1.0 Os
Os9 1.0000000000 0.1705520594 0.3411041189 0.2500000000  Biso 1.0 Os
Os10 1.0000000000 0.3411105383 0.1705435013 0.7500000000  Biso 1.0 Os
Os11 1.0000000000 0.8294329630 0.1705435013 0.7500000000  Biso 1.0 Os
Os12 1.0000000000 0.8294479406 0.6588958811 0.7500000000  Biso 1.0 Os
