# AFLOW.org Repositories
# Dy1Si1   [ORC,ORC,oP8] (STD_PRIM doi:10.
data_Dy1Si1
_pd_phase_name Dy1Si1
_cell_length_a  3.8329970749
_cell_length_b  5.7075497331
_cell_length_c  7.9066030386
_cell_angle_alpha  90.0000000000
_cell_angle_beta  90.0000000000
_cell_angle_gamma  90.0000000000
_symmetry_space_group_name_H-M  'P1'
_symmetry_Int_Tables_Number  1
loop_
_symmetry_equiv_pos_site_id
_symmetry_equiv_pos_as_xyz
  1  x,y,z
loop_
 _atom_site_label
 _atom_site_occupancy
 _atom_site_fract_x
 _atom_site_fract_y
 _atom_site_fract_z
 _atom_site_thermal_displace_type
 _atom_site_B_iso_or_equiv
 _atom_site_type_symbol
Dy1 1.0000000000 0.7500000000 0.8851621511 0.1784526325  Biso 1.0 Dy
Dy2 1.0000000000 0.2500000000 0.3851621511 0.3215473675  Biso 1.0 Dy
Dy3 1.0000000000 0.2500000000 0.1148378489 0.8215473675  Biso 1.0 Dy
Dy4 1.0000000000 0.7500000000 0.6148378489 0.6784526325  Biso 1.0 Dy
Si5 1.0000000000 0.7500000000 0.3716086228 0.0386073643  Biso 1.0 Si
Si6 1.0000000000 0.2500000000 0.8716086228 0.4613926357  Biso 1.0 Si
Si7 1.0000000000 0.2500000000 0.6283913772 0.9613926357  Biso 1.0 Si
Si8 1.0000000000 0.7500000000 0.1283913772 0.5386073643  Biso 1.0 Si
