# AFLOW.org Repositories
# Er1Ga2Ni1   [ORCC,ORCC,oS16] (STD_PRIM d
data_Er1Ga2Ni1
_pd_phase_name Er1Ga2Ni1
_cell_length_a  5.3537722499
_cell_length_b  5.3537722499
_cell_length_c  6.5936291768
_cell_angle_alpha  90.0000000000
_cell_angle_beta  90.0000000000
_cell_angle_gamma  134.6742468052
_symmetry_space_group_name_H-M  'P1'
_symmetry_Int_Tables_Number  1
loop_
_symmetry_equiv_pos_site_id
_symmetry_equiv_pos_as_xyz
  1  x,y,z
loop_
 _atom_site_label
 _atom_site_occupancy
 _atom_site_fract_x
 _atom_site_fract_y
 _atom_site_fract_z
 _atom_site_thermal_displace_type
 _atom_site_B_iso_or_equiv
 _atom_site_type_symbol
Er1 1.0000000000 0.5739536762 0.4260463238 0.7500000000  Biso 1.0 Er
Er2 1.0000000000 0.4260463238 0.5739536762 0.2500000000  Biso 1.0 Er
Ga3 1.0000000000 0.8590517440 0.1409482560 0.9473694969  Biso 1.0 Ga
Ga4 1.0000000000 0.1409482560 0.8590517440 0.4473694969  Biso 1.0 Ga
Ga5 1.0000000000 0.8590517440 0.1409482560 0.5526305031  Biso 1.0 Ga
Ga6 1.0000000000 0.1409482560 0.8590517440 0.0526305031  Biso 1.0 Ga
Ni7 1.0000000000 0.2925625300 0.7074374700 0.7500000000  Biso 1.0 Ni
Ni8 1.0000000000 0.7074374700 0.2925625300 0.2500000000  Biso 1.0 Ni
