# AFLOW.org Repositories
# Er1Ga1Rh1   [ORC,ORC,oP12] (STD_PRIM doi
data_Er1Ga1Rh1
_pd_phase_name Er1Ga1Rh1
_cell_length_a  4.2954667898
_cell_length_b  6.7254431286
_cell_length_c  7.7205706496
_cell_angle_alpha  90.0000000000
_cell_angle_beta  90.0000000000
_cell_angle_gamma  90.0000000000
_symmetry_space_group_name_H-M  'P1'
_symmetry_Int_Tables_Number  1
loop_
_symmetry_equiv_pos_site_id
_symmetry_equiv_pos_as_xyz
  1  x,y,z
loop_
 _atom_site_label
 _atom_site_occupancy
 _atom_site_fract_x
 _atom_site_fract_y
 _atom_site_fract_z
 _atom_site_thermal_displace_type
 _atom_site_B_iso_or_equiv
 _atom_site_type_symbol
Er1 1.0000000000 0.2500000000 0.9742622959 0.3111732313  Biso 1.0 Er
Er2 1.0000000000 0.7500000000 0.5257377041 0.8111732313  Biso 1.0 Er
Er3 1.0000000000 0.7500000000 0.0257377041 0.6888267687  Biso 1.0 Er
Er4 1.0000000000 0.2500000000 0.4742622959 0.1888267687  Biso 1.0 Er
Ga5 1.0000000000 0.2500000000 0.3429726492 0.5718344508  Biso 1.0 Ga
Ga6 1.0000000000 0.7500000000 0.1570273508 0.0718344508  Biso 1.0 Ga
Ga7 1.0000000000 0.7500000000 0.6570273508 0.4281655492  Biso 1.0 Ga
Ga8 1.0000000000 0.2500000000 0.8429726492 0.9281655492  Biso 1.0 Ga
Rh9 1.0000000000 0.2500000000 0.2325083057 0.8947701867  Biso 1.0 Rh
Rh10 1.0000000000 0.7500000000 0.2674916943 0.3947701867  Biso 1.0 Rh
Rh11 1.0000000000 0.7500000000 0.7674916943 0.1052298133  Biso 1.0 Rh
Rh12 1.0000000000 0.2500000000 0.7325083057 0.6052298133  Biso 1.0 Rh
