# AFLOW.org Repositories
# Er1Ge1   [ORCC,ORCC,oS8] (STD_PRIM doi:1
data_Er1Ge1
_pd_phase_name Er1Ge1
_cell_length_a  5.7249618356
_cell_length_b  5.7249618356
_cell_length_c  3.9269422553
_cell_angle_alpha  90.0000000000
_cell_angle_beta  90.0000000000
_cell_angle_gamma  136.5197502279
_symmetry_space_group_name_H-M  'P1'
_symmetry_Int_Tables_Number  1
loop_
_symmetry_equiv_pos_site_id
_symmetry_equiv_pos_as_xyz
  1  x,y,z
loop_
 _atom_site_label
 _atom_site_occupancy
 _atom_site_fract_x
 _atom_site_fract_y
 _atom_site_fract_z
 _atom_site_thermal_displace_type
 _atom_site_B_iso_or_equiv
 _atom_site_type_symbol
Er1 1.0000000000 0.8615091209 0.1384908791 0.7500000000  Biso 1.0 Er
Er2 1.0000000000 0.1384908791 0.8615091209 0.2500000000  Biso 1.0 Er
Ge3 1.0000000000 0.5864900528 0.4135099472 0.7500000000  Biso 1.0 Ge
Ge4 1.0000000000 0.4135099472 0.5864900528 0.2500000000  Biso 1.0 Ge
