# AFLOW.org Repositories
# Er1Os2   [HEX,HEX,hP12] (STD_PRIM doi:10
data_Er1Os2
_pd_phase_name Er1Os2
_cell_length_a  5.2586171936
_cell_length_b  5.2586171936
_cell_length_c  8.9327519759
_cell_angle_alpha  90.0000000000
_cell_angle_beta  90.0000000000
_cell_angle_gamma  120.0000000000
_symmetry_space_group_name_H-M  'P1'
_symmetry_Int_Tables_Number  1
loop_
_symmetry_equiv_pos_site_id
_symmetry_equiv_pos_as_xyz
  1  x,y,z
loop_
 _atom_site_label
 _atom_site_occupancy
 _atom_site_fract_x
 _atom_site_fract_y
 _atom_site_fract_z
 _atom_site_thermal_displace_type
 _atom_site_B_iso_or_equiv
 _atom_site_type_symbol
Er1 1.0000000000 0.3333358469 0.6666641531 0.0658659562  Biso 1.0 Er
Er2 1.0000000000 0.6666641531 0.3333358469 0.5658659562  Biso 1.0 Er
Er3 1.0000000000 0.6666641531 0.3333358469 0.9341340438  Biso 1.0 Er
Er4 1.0000000000 0.3333358469 0.6666641531 0.4341340438  Biso 1.0 Er
Os5 1.0000000000 0.0000000000 0.0000000000 0.0000000000  Biso 1.0 Os
Os6 1.0000000000 0.0000000000 0.0000000000 0.5000000000  Biso 1.0 Os
Os7 1.0000000000 0.8290629728 0.6581423596 0.2500000000  Biso 1.0 Os
Os8 1.0000000000 0.3418576404 0.1709370272 0.2500000000  Biso 1.0 Os
Os9 1.0000000000 0.8290690704 0.1709309296 0.2500000000  Biso 1.0 Os
Os10 1.0000000000 0.1709370272 0.3418576404 0.7500000000  Biso 1.0 Os
Os11 1.0000000000 0.6581423596 0.8290629728 0.7500000000  Biso 1.0 Os
Os12 1.0000000000 0.1709309296 0.8290690704 0.7500000000  Biso 1.0 Os
