# AFLOW.org Repositories
# Er1Pt2Si1   [ORC,ORC,oP16] (STD_PRIM doi
data_Er1Pt2Si1
_pd_phase_name Er1Pt2Si1
_cell_length_a  5.5117763044
_cell_length_b  6.9167989001
_cell_length_c  7.2481950143
_cell_angle_alpha  90.0000000000
_cell_angle_beta  90.0000000000
_cell_angle_gamma  90.0000000000
_symmetry_space_group_name_H-M  'P1'
_symmetry_Int_Tables_Number  1
loop_
_symmetry_equiv_pos_site_id
_symmetry_equiv_pos_as_xyz
  1  x,y,z
loop_
 _atom_site_label
 _atom_site_occupancy
 _atom_site_fract_x
 _atom_site_fract_y
 _atom_site_fract_z
 _atom_site_thermal_displace_type
 _atom_site_B_iso_or_equiv
 _atom_site_type_symbol
Er1 1.0000000000 0.6401141284 0.7500000000 0.0269992457  Biso 1.0 Er
Er2 1.0000000000 0.1401141284 0.2500000000 0.4730007543  Biso 1.0 Er
Er3 1.0000000000 0.3598858716 0.2500000000 0.9730007543  Biso 1.0 Er
Er4 1.0000000000 0.8598858716 0.7500000000 0.5269992457  Biso 1.0 Er
Pt5 1.0000000000 0.0906929098 0.9497996312 0.1815429666  Biso 1.0 Pt
Pt6 1.0000000000 0.5906929098 0.0502003688 0.3184570334  Biso 1.0 Pt
Pt7 1.0000000000 0.9093070902 0.4497996312 0.8184570334  Biso 1.0 Pt
Pt8 1.0000000000 0.4093070902 0.5502003688 0.6815429666  Biso 1.0 Pt
Pt9 1.0000000000 0.9093070902 0.0502003688 0.8184570334  Biso 1.0 Pt
Pt10 1.0000000000 0.4093070902 0.9497996312 0.6815429666  Biso 1.0 Pt
Pt11 1.0000000000 0.0906929098 0.5502003688 0.1815429666  Biso 1.0 Pt
Pt12 1.0000000000 0.5906929098 0.4497996312 0.3184570334  Biso 1.0 Pt
Si13 1.0000000000 0.3604962060 0.7500000000 0.3793104812  Biso 1.0 Si
Si14 1.0000000000 0.8604962060 0.2500000000 0.1206895188  Biso 1.0 Si
Si15 1.0000000000 0.6395037940 0.2500000000 0.6206895188  Biso 1.0 Si
Si16 1.0000000000 0.1395037940 0.7500000000 0.8793104812  Biso 1.0 Si
