# AFLOW.org Repositories
# Er1P1Pd1   [ORC,ORC,oP12] (STD_PRIM doi:
data_Er1P1Pd1
_pd_phase_name Er1P1Pd1
_cell_length_a  3.9827405018
_cell_length_b  6.8687622629
_cell_length_c  7.7405875006
_cell_angle_alpha  90.0000000000
_cell_angle_beta  90.0000000000
_cell_angle_gamma  90.0000000000
_symmetry_space_group_name_H-M  'P1'
_symmetry_Int_Tables_Number  1
loop_
_symmetry_equiv_pos_site_id
_symmetry_equiv_pos_as_xyz
  1  x,y,z
loop_
 _atom_site_label
 _atom_site_occupancy
 _atom_site_fract_x
 _atom_site_fract_y
 _atom_site_fract_z
 _atom_site_thermal_displace_type
 _atom_site_B_iso_or_equiv
 _atom_site_type_symbol
Er1 1.0000000000 0.2500000000 0.5314445388 0.3117576918  Biso 1.0 Er
Er2 1.0000000000 0.7500000000 0.9685554612 0.8117576918  Biso 1.0 Er
Er3 1.0000000000 0.7500000000 0.4685554612 0.6882423082  Biso 1.0 Er
Er4 1.0000000000 0.2500000000 0.0314445388 0.1882423082  Biso 1.0 Er
P5 1.0000000000 0.2500000000 0.2489333657 0.8772513996  Biso 1.0 P
P6 1.0000000000 0.7500000000 0.2510666343 0.3772513996  Biso 1.0 P
P7 1.0000000000 0.7500000000 0.7510666343 0.1227486004  Biso 1.0 P
P8 1.0000000000 0.2500000000 0.7489333657 0.6227486004  Biso 1.0 P
Pd9 1.0000000000 0.2500000000 0.6475377667 0.9382213692  Biso 1.0 Pd
Pd10 1.0000000000 0.7500000000 0.8524622333 0.4382213692  Biso 1.0 Pd
Pd11 1.0000000000 0.7500000000 0.3524622333 0.0617786308  Biso 1.0 Pd
Pd12 1.0000000000 0.2500000000 0.1475377667 0.5617786308  Biso 1.0 Pd
