# AFLOW.org Repositories
# Er2Mg1Se4   [FCC,FCC,cF56] (STD_PRIM doi
data_Er2Mg1Se4
_pd_phase_name Er2Mg1Se4
_cell_length_a  8.2197447553
_cell_length_b  8.2197447553
_cell_length_c  8.2197447553
_cell_angle_alpha  60.0000000000
_cell_angle_beta  60.0000000000
_cell_angle_gamma  60.0000000000
_symmetry_space_group_name_H-M  'P1'
_symmetry_Int_Tables_Number  1
loop_
_symmetry_equiv_pos_site_id
_symmetry_equiv_pos_as_xyz
  1  x,y,z
loop_
 _atom_site_label
 _atom_site_occupancy
 _atom_site_fract_x
 _atom_site_fract_y
 _atom_site_fract_z
 _atom_site_thermal_displace_type
 _atom_site_B_iso_or_equiv
 _atom_site_type_symbol
Er1 1.0000000000 0.0000000000 0.0000000000 0.0000000000  Biso 1.0 Er
Er2 1.0000000000 0.5000000000 0.0000000000 0.0000000000  Biso 1.0 Er
Er3 1.0000000000 0.5000000000 0.5000000000 0.0000000000  Biso 1.0 Er
Er4 1.0000000000 0.5000000000 0.0000000000 0.5000000000  Biso 1.0 Er
Mg5 1.0000000000 0.8750000000 0.3750000000 0.3750000000  Biso 1.0 Mg
Mg6 1.0000000000 0.1250000000 0.6250000000 0.6250000000  Biso 1.0 Mg
Se7 1.0000000000 0.2656684827 0.2447771724 0.2447771724  Biso 1.0 Se
Se8 1.0000000000 0.7447771724 0.2447771724 0.2447771724  Biso 1.0 Se
Se9 1.0000000000 0.7447771724 0.7656684827 0.2447771724  Biso 1.0 Se
Se10 1.0000000000 0.7447771724 0.2447771724 0.7656684827  Biso 1.0 Se
Se11 1.0000000000 0.2552228276 0.7552228276 0.7552228276  Biso 1.0 Se
Se12 1.0000000000 0.7343315173 0.7552228276 0.7552228276  Biso 1.0 Se
Se13 1.0000000000 0.2552228276 0.2343315173 0.7552228276  Biso 1.0 Se
Se14 1.0000000000 0.2552228276 0.7552228276 0.2343315173  Biso 1.0 Se
