# AFLOW.org Repositories
# Er3Os4Si13   [CUB,CUB,cP40] (STD_PRIM do
data_Er3Os4Si13
_pd_phase_name Er3Os4Si13
_cell_length_a  8.7753787195
_cell_length_b  8.7753787195
_cell_length_c  8.7753787195
_cell_angle_alpha  90.0000000000
_cell_angle_beta  90.0000000000
_cell_angle_gamma  90.0000000000
_symmetry_space_group_name_H-M  'P1'
_symmetry_Int_Tables_Number  1
loop_
_symmetry_equiv_pos_site_id
_symmetry_equiv_pos_as_xyz
  1  x,y,z
loop_
 _atom_site_label
 _atom_site_occupancy
 _atom_site_fract_x
 _atom_site_fract_y
 _atom_site_fract_z
 _atom_site_thermal_displace_type
 _atom_site_B_iso_or_equiv
 _atom_site_type_symbol
Er1 1.0000000000 0.7500000000 0.0000000000 0.5000000000  Biso 1.0 Er
Er2 1.0000000000 0.2500000000 0.0000000000 0.5000000000  Biso 1.0 Er
Er3 1.0000000000 0.5000000000 0.7500000000 0.0000000000  Biso 1.0 Er
Er4 1.0000000000 0.5000000000 0.2500000000 0.0000000000  Biso 1.0 Er
Er5 1.0000000000 0.0000000000 0.5000000000 0.2500000000  Biso 1.0 Er
Er6 1.0000000000 0.0000000000 0.5000000000 0.7500000000  Biso 1.0 Er
Os7 1.0000000000 0.7500000000 0.7500000000 0.2500000000  Biso 1.0 Os
Os8 1.0000000000 0.2500000000 0.2500000000 0.2500000000  Biso 1.0 Os
Os9 1.0000000000 0.2500000000 0.7500000000 0.7500000000  Biso 1.0 Os
Os10 1.0000000000 0.7500000000 0.2500000000 0.7500000000  Biso 1.0 Os
Os11 1.0000000000 0.2500000000 0.2500000000 0.7500000000  Biso 1.0 Os
Os12 1.0000000000 0.7500000000 0.7500000000 0.7500000000  Biso 1.0 Os
Os13 1.0000000000 0.7500000000 0.2500000000 0.2500000000  Biso 1.0 Os
Os14 1.0000000000 0.2500000000 0.7500000000 0.2500000000  Biso 1.0 Os
Si15 1.0000000000 0.0000000000 0.0000000000 0.0000000000  Biso 1.0 Si
Si16 1.0000000000 0.5000000000 0.5000000000 0.5000000000  Biso 1.0 Si
Si17 1.0000000000 0.0000000000 0.8614833146 0.2818355719  Biso 1.0 Si
Si18 1.0000000000 0.0000000000 0.1385166854 0.2818355719  Biso 1.0 Si
Si19 1.0000000000 0.0000000000 0.8614833146 0.7181644281  Biso 1.0 Si
Si20 1.0000000000 0.0000000000 0.1385166854 0.7181644281  Biso 1.0 Si
Si21 1.0000000000 0.7181644281 0.0000000000 0.1385166854  Biso 1.0 Si
Si22 1.0000000000 0.7181644281 0.0000000000 0.8614833146  Biso 1.0 Si
Si23 1.0000000000 0.2818355719 0.0000000000 0.1385166854  Biso 1.0 Si
Si24 1.0000000000 0.2818355719 0.0000000000 0.8614833146  Biso 1.0 Si
Si25 1.0000000000 0.8614833146 0.7181644281 0.0000000000  Biso 1.0 Si
Si26 1.0000000000 0.1385166854 0.7181644281 0.0000000000  Biso 1.0 Si
Si27 1.0000000000 0.8614833146 0.2818355719 0.0000000000  Biso 1.0 Si
Si28 1.0000000000 0.1385166854 0.2818355719 0.0000000000  Biso 1.0 Si
Si29 1.0000000000 0.3614833146 0.5000000000 0.2181644281  Biso 1.0 Si
Si30 1.0000000000 0.6385166854 0.5000000000 0.2181644281  Biso 1.0 Si
Si31 1.0000000000 0.3614833146 0.5000000000 0.7818355719  Biso 1.0 Si
Si32 1.0000000000 0.6385166854 0.5000000000 0.7818355719  Biso 1.0 Si
Si33 1.0000000000 0.5000000000 0.2181644281 0.3614833146  Biso 1.0 Si
Si34 1.0000000000 0.5000000000 0.2181644281 0.6385166854  Biso 1.0 Si
Si35 1.0000000000 0.5000000000 0.7818355719 0.3614833146  Biso 1.0 Si
Si36 1.0000000000 0.5000000000 0.7818355719 0.6385166854  Biso 1.0 Si
Si37 1.0000000000 0.2181644281 0.3614833146 0.5000000000  Biso 1.0 Si
Si38 1.0000000000 0.2181644281 0.6385166854 0.5000000000  Biso 1.0 Si
Si39 1.0000000000 0.7818355719 0.3614833146 0.5000000000  Biso 1.0 Si
Si40 1.0000000000 0.7818355719 0.6385166854 0.5000000000  Biso 1.0 Si
