# AFLOW.org Repositories
# Eu1F4Mg1   [ORCC,ORCC,oS24] (STD_PRIM do
data_Eu1F4Mg1
_pd_phase_name Eu1F4Mg1
_cell_length_a  7.7510830388
_cell_length_b  7.7510830388
_cell_length_c  5.6148136300
_cell_angle_alpha  90.0000000000
_cell_angle_beta  90.0000000000
_cell_angle_gamma  149.4008310085
_symmetry_space_group_name_H-M  'P1'
_symmetry_Int_Tables_Number  1
loop_
_symmetry_equiv_pos_site_id
_symmetry_equiv_pos_as_xyz
  1  x,y,z
loop_
 _atom_site_label
 _atom_site_occupancy
 _atom_site_fract_x
 _atom_site_fract_y
 _atom_site_fract_z
 _atom_site_thermal_displace_type
 _atom_site_B_iso_or_equiv
 _atom_site_type_symbol
Eu1 1.0000000000 0.6663136663 0.3336863337 0.2500000000  Biso 1.0 Eu
Eu2 1.0000000000 0.3336863337 0.6663136663 0.7500000000  Biso 1.0 Eu
F3 1.0000000000 0.5995851786 0.4004148214 0.7500000000  Biso 1.0 F
F4 1.0000000000 0.4004148214 0.5995851786 0.2500000000  Biso 1.0 F
F5 1.0000000000 0.8132248595 0.1867751405 0.0036143433  Biso 1.0 F
F6 1.0000000000 0.1867751405 0.8132248595 0.5036143433  Biso 1.0 F
F7 1.0000000000 0.8132248595 0.1867751405 0.4963856567  Biso 1.0 F
F8 1.0000000000 0.1867751405 0.8132248595 0.9963856567  Biso 1.0 F
F9 1.0000000000 0.0000000000 0.0000000000 0.5000000000  Biso 1.0 F
F10 1.0000000000 0.0000000000 0.0000000000 0.0000000000  Biso 1.0 F
Mg11 1.0000000000 0.0887074835 0.9112925165 0.7500000000  Biso 1.0 Mg
Mg12 1.0000000000 0.9112925165 0.0887074835 0.2500000000  Biso 1.0 Mg
