# AFLOW.org Repositories
# F3Na1Zn1   [ORC,ORC,oP20] (STD_PRIM doi:
data_F3Na1Zn1
_pd_phase_name F3Na1Zn1
_cell_length_a  5.3998991680
_cell_length_b  5.5712317978
_cell_length_c  7.7407570905
_cell_angle_alpha  90.0000000000
_cell_angle_beta  90.0000000000
_cell_angle_gamma  90.0000000000
_symmetry_space_group_name_H-M  'P1'
_symmetry_Int_Tables_Number  1
loop_
_symmetry_equiv_pos_site_id
_symmetry_equiv_pos_as_xyz
  1  x,y,z
loop_
 _atom_site_label
 _atom_site_occupancy
 _atom_site_fract_x
 _atom_site_fract_y
 _atom_site_fract_z
 _atom_site_thermal_displace_type
 _atom_site_B_iso_or_equiv
 _atom_site_type_symbol
F1 1.0000000000 0.0955701731 0.9683672290 0.7500000000  Biso 1.0 F
F2 1.0000000000 0.5955701731 0.5316327710 0.2500000000  Biso 1.0 F
F3 1.0000000000 0.9044298269 0.0316327710 0.2500000000  Biso 1.0 F
F4 1.0000000000 0.4044298269 0.4683672290 0.7500000000  Biso 1.0 F
F5 1.0000000000 0.8000696300 0.2967510090 0.9501144103  Biso 1.0 F
F6 1.0000000000 0.3000696300 0.2032489910 0.0498855897  Biso 1.0 F
F7 1.0000000000 0.1999303700 0.7032489910 0.4501144103  Biso 1.0 F
F8 1.0000000000 0.6999303700 0.7967510090 0.5498855897  Biso 1.0 F
F9 1.0000000000 0.1999303700 0.7032489910 0.0498855897  Biso 1.0 F
F10 1.0000000000 0.6999303700 0.7967510090 0.9501144103  Biso 1.0 F
F11 1.0000000000 0.8000696300 0.2967510090 0.5498855897  Biso 1.0 F
F12 1.0000000000 0.3000696300 0.2032489910 0.4501144103  Biso 1.0 F
Na13 1.0000000000 0.5138479261 0.0541136001 0.7500000000  Biso 1.0 Na
Na14 1.0000000000 0.0138479261 0.4458863999 0.2500000000  Biso 1.0 Na
Na15 1.0000000000 0.4861520739 0.9458863999 0.2500000000  Biso 1.0 Na
Na16 1.0000000000 0.9861520739 0.5541136001 0.7500000000  Biso 1.0 Na
Zn17 1.0000000000 0.0000000000 0.0000000000 0.0000000000  Biso 1.0 Zn
Zn18 1.0000000000 0.5000000000 0.5000000000 0.0000000000  Biso 1.0 Zn
Zn19 1.0000000000 0.0000000000 0.0000000000 0.5000000000  Biso 1.0 Zn
Zn20 1.0000000000 0.5000000000 0.5000000000 0.5000000000  Biso 1.0 Zn
