# AFLOW.org Repositories
# F4Pd1Sr1   [BCT,BCT2,tI24] (STD_PRIM doi
data_F4Pd1Sr1
_pd_phase_name F4Pd1Sr1
_cell_length_a  6.8761408067
_cell_length_b  6.8761408067
_cell_length_c  6.8761408067
_cell_angle_alpha  129.2375481999
_cell_angle_beta  129.2375481999
_cell_angle_gamma  74.6286478296
_symmetry_space_group_name_H-M  'P1'
_symmetry_Int_Tables_Number  1
loop_
_symmetry_equiv_pos_site_id
_symmetry_equiv_pos_as_xyz
  1  x,y,z
loop_
 _atom_site_label
 _atom_site_occupancy
 _atom_site_fract_x
 _atom_site_fract_y
 _atom_site_fract_z
 _atom_site_thermal_displace_type
 _atom_site_B_iso_or_equiv
 _atom_site_type_symbol
F1 1.0000000000 0.6971553294 0.1971553294 0.1566790041  Biso 1.0 F
F2 1.0000000000 0.0404763253 0.5404763253 0.8433209959  Biso 1.0 F
F3 1.0000000000 0.5404763253 0.6971553294 0.5000000000  Biso 1.0 F
F4 1.0000000000 0.1971553294 0.0404763253 0.5000000000  Biso 1.0 F
F5 1.0000000000 0.8028446706 0.9595236747 0.5000000000  Biso 1.0 F
F6 1.0000000000 0.4595236747 0.3028446706 0.5000000000  Biso 1.0 F
F7 1.0000000000 0.9595236747 0.4595236747 0.1566790041  Biso 1.0 F
F8 1.0000000000 0.3028446706 0.8028446706 0.8433209959  Biso 1.0 F
Pd9 1.0000000000 0.0000000000 0.5000000000 0.5000000000  Biso 1.0 Pd
Pd10 1.0000000000 0.5000000000 0.0000000000 0.5000000000  Biso 1.0 Pd
Sr11 1.0000000000 0.7500000000 0.7500000000 0.0000000000  Biso 1.0 Sr
Sr12 1.0000000000 0.2500000000 0.2500000000 0.0000000000  Biso 1.0 Sr
