# AFLOW.org Repositories
# F6Pb1Zr1   [ORCC,ORCC,oS32] (STD_PRIM do
data_F6Pb1Zr1
_pd_phase_name F6Pb1Zr1
_cell_length_a  6.8243741364
_cell_length_b  6.8243741364
_cell_length_c  5.4681573536
_cell_angle_alpha  90.0000000000
_cell_angle_beta  90.0000000000
_cell_angle_gamma  111.5371038878
_symmetry_space_group_name_H-M  'P1'
_symmetry_Int_Tables_Number  1
loop_
_symmetry_equiv_pos_site_id
_symmetry_equiv_pos_as_xyz
  1  x,y,z
loop_
 _atom_site_label
 _atom_site_occupancy
 _atom_site_fract_x
 _atom_site_fract_y
 _atom_site_fract_z
 _atom_site_thermal_displace_type
 _atom_site_B_iso_or_equiv
 _atom_site_type_symbol
F1 1.0000000000 0.5729217278 0.4270782722 0.1560935303  Biso 1.0 F
F2 1.0000000000 0.9270782722 0.0729217278 0.1560935303  Biso 1.0 F
F3 1.0000000000 0.0729217278 0.9270782722 0.8439064697  Biso 1.0 F
F4 1.0000000000 0.4270782722 0.5729217278 0.8439064697  Biso 1.0 F
F5 1.0000000000 0.9394856221 0.6853040271 0.2568137985  Biso 1.0 F
F6 1.0000000000 0.5605143779 0.8146959729 0.2568137985  Biso 1.0 F
F7 1.0000000000 0.8146959729 0.5605143779 0.7431862015  Biso 1.0 F
F8 1.0000000000 0.6853040271 0.9394856221 0.7431862015  Biso 1.0 F
F9 1.0000000000 0.0605143779 0.3146959729 0.7431862015  Biso 1.0 F
F10 1.0000000000 0.4394856221 0.1853040271 0.7431862015  Biso 1.0 F
F11 1.0000000000 0.1853040271 0.4394856221 0.2568137985  Biso 1.0 F
F12 1.0000000000 0.3146959729 0.0605143779 0.2568137985  Biso 1.0 F
Pb13 1.0000000000 0.7500000000 0.2500000000 0.4767803811  Biso 1.0 Pb
Pb14 1.0000000000 0.2500000000 0.7500000000 0.5232196189  Biso 1.0 Pb
Zr15 1.0000000000 0.2500000000 0.2500000000 0.0000000000  Biso 1.0 Zr
Zr16 1.0000000000 0.7500000000 0.7500000000 0.0000000000  Biso 1.0 Zr
