# AFLOW.org Repositories
# Fe1H6Sr2   [FCC,FCC,cF36] (STD_PRIM doi:
data_Fe1H6Sr2
_pd_phase_name Fe1H6Sr2
_cell_length_a  5.2287996417
_cell_length_b  5.2287996417
_cell_length_c  5.2287996417
_cell_angle_alpha  60.0000000000
_cell_angle_beta  60.0000000000
_cell_angle_gamma  60.0000000000
_symmetry_space_group_name_H-M  'P1'
_symmetry_Int_Tables_Number  1
loop_
_symmetry_equiv_pos_site_id
_symmetry_equiv_pos_as_xyz
  1  x,y,z
loop_
 _atom_site_label
 _atom_site_occupancy
 _atom_site_fract_x
 _atom_site_fract_y
 _atom_site_fract_z
 _atom_site_thermal_displace_type
 _atom_site_B_iso_or_equiv
 _atom_site_type_symbol
Fe1 1.0000000000 0.0000000000 0.0000000000 0.0000000000  Biso 1.0 Fe
H2 1.0000000000 0.2243156564 0.7756843436 0.2243156564  Biso 1.0 H
H3 1.0000000000 0.7756843436 0.2243156564 0.7756843436  Biso 1.0 H
H4 1.0000000000 0.7756843436 0.2243156564 0.2243156564  Biso 1.0 H
H5 1.0000000000 0.2243156564 0.7756843436 0.7756843436  Biso 1.0 H
H6 1.0000000000 0.7756843436 0.7756843436 0.2243156564  Biso 1.0 H
H7 1.0000000000 0.2243156564 0.2243156564 0.7756843436  Biso 1.0 H
Sr8 1.0000000000 0.7500000000 0.7500000000 0.7500000000  Biso 1.0 Sr
Sr9 1.0000000000 0.2500000000 0.2500000000 0.2500000000  Biso 1.0 Sr
