# AFLOW.org Repositories
# Fe1N2W1   [HEX,HEX,hP8] (STD_PRIM doi:10
data_Fe1N2W1
_pd_phase_name Fe1N2W1
_cell_length_a  2.9016012533
_cell_length_b  2.9016012533
_cell_length_c  11.2182395641
_cell_angle_alpha  90.0000000000
_cell_angle_beta  90.0000000000
_cell_angle_gamma  120.0000000000
_symmetry_space_group_name_H-M  'P1'
_symmetry_Int_Tables_Number  1
loop_
_symmetry_equiv_pos_site_id
_symmetry_equiv_pos_as_xyz
  1  x,y,z
loop_
 _atom_site_label
 _atom_site_occupancy
 _atom_site_fract_x
 _atom_site_fract_y
 _atom_site_fract_z
 _atom_site_thermal_displace_type
 _atom_site_B_iso_or_equiv
 _atom_site_type_symbol
Fe1 1.0000000000 0.0000000000 0.0000000000 0.0000000000  Biso 1.0 Fe
Fe2 1.0000000000 0.0000000000 0.0000000000 0.5000000000  Biso 1.0 Fe
N3 1.0000000000 0.3333173816 0.6666826184 0.1322068907  Biso 1.0 N
N4 1.0000000000 0.3333173816 0.6666826184 0.3677931093  Biso 1.0 N
N5 1.0000000000 0.6666826184 0.3333173816 0.8677931093  Biso 1.0 N
N6 1.0000000000 0.6666826184 0.3333173816 0.6322068907  Biso 1.0 N
W7 1.0000000000 0.0000000000 0.0000000000 0.2500000000  Biso 1.0 W
W8 1.0000000000 0.0000000000 0.0000000000 0.7500000000  Biso 1.0 W
