# AFLOW.org Repositories
# Fe1Nb1P1   [ORC,ORC,oP12] (STD_PRIM doi:
data_Fe1Nb1P1
_pd_phase_name Fe1Nb1P1
_cell_length_a  3.6030124557
_cell_length_b  6.1416526857
_cell_length_c  6.8981982473
_cell_angle_alpha  90.0000000000
_cell_angle_beta  90.0000000000
_cell_angle_gamma  90.0000000000
_symmetry_space_group_name_H-M  'P1'
_symmetry_Int_Tables_Number  1
loop_
_symmetry_equiv_pos_site_id
_symmetry_equiv_pos_as_xyz
  1  x,y,z
loop_
 _atom_site_label
 _atom_site_occupancy
 _atom_site_fract_x
 _atom_site_fract_y
 _atom_site_fract_z
 _atom_site_thermal_displace_type
 _atom_site_B_iso_or_equiv
 _atom_site_type_symbol
Fe1 1.0000000000 0.2500000000 0.1396852853 0.4363243442  Biso 1.0 Fe
Fe2 1.0000000000 0.7500000000 0.3603147147 0.9363243442  Biso 1.0 Fe
Fe3 1.0000000000 0.7500000000 0.8603147147 0.5636756558  Biso 1.0 Fe
Fe4 1.0000000000 0.2500000000 0.6396852853 0.0636756558  Biso 1.0 Fe
Nb5 1.0000000000 0.2500000000 0.0175623612 0.8203066391  Biso 1.0 Nb
Nb6 1.0000000000 0.7500000000 0.4824376388 0.3203066391  Biso 1.0 Nb
Nb7 1.0000000000 0.7500000000 0.9824376388 0.1796933609  Biso 1.0 Nb
Nb8 1.0000000000 0.2500000000 0.5175623612 0.6796933609  Biso 1.0 Nb
P9 1.0000000000 0.2500000000 0.7793527160 0.3852036901  Biso 1.0 P
P10 1.0000000000 0.7500000000 0.7206472840 0.8852036901  Biso 1.0 P
P11 1.0000000000 0.7500000000 0.2206472840 0.6147963099  Biso 1.0 P
P12 1.0000000000 0.2500000000 0.2793527160 0.1147963099  Biso 1.0 P
