# AFLOW.org Repositories
# Fe1P1Zr1   [ORC,ORC,oP12] (STD_PRIM doi:
data_Fe1P1Zr1
_pd_phase_name Fe1P1Zr1
_cell_length_a  3.6311838709
_cell_length_b  6.4510468769
_cell_length_c  8.0073527563
_cell_angle_alpha  90.0000000000
_cell_angle_beta  90.0000000000
_cell_angle_gamma  90.0000000000
_symmetry_space_group_name_H-M  'P1'
_symmetry_Int_Tables_Number  1
loop_
_symmetry_equiv_pos_site_id
_symmetry_equiv_pos_as_xyz
  1  x,y,z
loop_
 _atom_site_label
 _atom_site_occupancy
 _atom_site_fract_x
 _atom_site_fract_y
 _atom_site_fract_z
 _atom_site_thermal_displace_type
 _atom_site_B_iso_or_equiv
 _atom_site_type_symbol
Fe1 1.0000000000 0.2500000000 0.1279668523 0.4480412589  Biso 1.0 Fe
Fe2 1.0000000000 0.7500000000 0.3720331477 0.9480412589  Biso 1.0 Fe
Fe3 1.0000000000 0.7500000000 0.8720331477 0.5519587411  Biso 1.0 Fe
Fe4 1.0000000000 0.2500000000 0.6279668523 0.0519587411  Biso 1.0 Fe
P5 1.0000000000 0.2500000000 0.7556605840 0.3583174503  Biso 1.0 P
P6 1.0000000000 0.7500000000 0.7443394160 0.8583174503  Biso 1.0 P
P7 1.0000000000 0.7500000000 0.2443394160 0.6416825497  Biso 1.0 P
P8 1.0000000000 0.2500000000 0.2556605840 0.1416825497  Biso 1.0 P
Zr9 1.0000000000 0.2500000000 0.0505691842 0.8355587156  Biso 1.0 Zr
Zr10 1.0000000000 0.7500000000 0.4494308158 0.3355587156  Biso 1.0 Zr
Zr11 1.0000000000 0.7500000000 0.9494308158 0.1644412844  Biso 1.0 Zr
Zr12 1.0000000000 0.2500000000 0.5505691842 0.6644412844  Biso 1.0 Zr
