# AFLOW.org Repositories
# Fe1Se2   [ORC,ORC,oP6] (STD_PRIM doi:10.
data_Fe1Se2
_pd_phase_name Fe1Se2
_cell_length_a  3.6888586834
_cell_length_b  4.8471939011
_cell_length_c  5.9036987429
_cell_angle_alpha  90.0000000000
_cell_angle_beta  90.0000000000
_cell_angle_gamma  90.0000000000
_symmetry_space_group_name_H-M  'P1'
_symmetry_Int_Tables_Number  1
loop_
_symmetry_equiv_pos_site_id
_symmetry_equiv_pos_as_xyz
  1  x,y,z
loop_
 _atom_site_label
 _atom_site_occupancy
 _atom_site_fract_x
 _atom_site_fract_y
 _atom_site_fract_z
 _atom_site_thermal_displace_type
 _atom_site_B_iso_or_equiv
 _atom_site_type_symbol
Fe1 1.0000000000 0.0000000000 0.0000000000 0.0000000000  Biso 1.0 Fe
Fe2 1.0000000000 0.5000000000 0.5000000000 0.5000000000  Biso 1.0 Fe
Se3 1.0000000000 0.0000000000 0.2037123959 0.6241571791  Biso 1.0 Se
Se4 1.0000000000 0.0000000000 0.7962876041 0.3758428209  Biso 1.0 Se
Se5 1.0000000000 0.5000000000 0.2962876041 0.1241571791  Biso 1.0 Se
Se6 1.0000000000 0.5000000000 0.7037123959 0.8758428209  Biso 1.0 Se
