# AFLOW.org Repositories
# Ga1Ho3O6   [ORCC,ORCC,oS40] (STD_PRIM do
data_Ga1Ho3O6
_pd_phase_name Ga1Ho3O6
_cell_length_a  7.1052866748
_cell_length_b  7.1052866748
_cell_length_c  5.4155993511
_cell_angle_alpha  90.0000000000
_cell_angle_beta  90.0000000000
_cell_angle_gamma  102.8601115545
_symmetry_space_group_name_H-M  'P1'
_symmetry_Int_Tables_Number  1
loop_
_symmetry_equiv_pos_site_id
_symmetry_equiv_pos_as_xyz
  1  x,y,z
loop_
 _atom_site_label
 _atom_site_occupancy
 _atom_site_fract_x
 _atom_site_fract_y
 _atom_site_fract_z
 _atom_site_thermal_displace_type
 _atom_site_B_iso_or_equiv
 _atom_site_type_symbol
Ga1 1.0000000000 0.8062551260 0.1937448740 0.9928282856  Biso 1.0 Ga
Ga2 1.0000000000 0.1937448740 0.8062551260 0.4928282856  Biso 1.0 Ga
Ho3 1.0000000000 0.7013965620 0.9118458290 0.5242205632  Biso 1.0 Ho
Ho4 1.0000000000 0.2986034380 0.0881541710 0.0242205632  Biso 1.0 Ho
Ho5 1.0000000000 0.9118458290 0.7013965620 0.0242205632  Biso 1.0 Ho
Ho6 1.0000000000 0.0881541710 0.2986034380 0.5242205632  Biso 1.0 Ho
Ho7 1.0000000000 0.6016112299 0.3983887701 0.5727131606  Biso 1.0 Ho
Ho8 1.0000000000 0.3983887701 0.6016112299 0.0727131606  Biso 1.0 Ho
O9 1.0000000000 0.5767198020 0.1062837092 0.8133058617  Biso 1.0 O
O10 1.0000000000 0.4232801980 0.8937162908 0.3133058617  Biso 1.0 O
O11 1.0000000000 0.1062837092 0.5767198020 0.3133058617  Biso 1.0 O
O12 1.0000000000 0.8937162908 0.4232801980 0.8133058617  Biso 1.0 O
O13 1.0000000000 0.6434962688 0.6773502832 0.7982574609  Biso 1.0 O
O14 1.0000000000 0.3565037312 0.3226497168 0.2982574609  Biso 1.0 O
O15 1.0000000000 0.6773502832 0.6434962688 0.2982574609  Biso 1.0 O
O16 1.0000000000 0.3226497168 0.3565037312 0.7982574609  Biso 1.0 O
O17 1.0000000000 0.9605813620 0.0394186380 0.8474314890  Biso 1.0 O
O18 1.0000000000 0.0394186380 0.9605813620 0.3474314890  Biso 1.0 O
O19 1.0000000000 0.7846877896 0.2153122104 0.3317192930  Biso 1.0 O
O20 1.0000000000 0.2153122104 0.7846877896 0.8317192930  Biso 1.0 O
