# AFLOW.org Repositories
# Ga1Sn2V2                                
data_Ga1Sn2V2
_pd_phase_name Ga1Sn2V2
_cell_length_a  9.8545261089
_cell_length_b  9.8545261089
_cell_length_c  6.8288076452
_cell_angle_alpha  90.0000000000
_cell_angle_beta  90.0000000000
_cell_angle_gamma  146.7011104381
_symmetry_space_group_name_H-M  'P1'
_symmetry_Int_Tables_Number  1
loop_
_symmetry_equiv_pos_site_id
_symmetry_equiv_pos_as_xyz
  1  x,y,z
loop_
 _atom_site_label
 _atom_site_occupancy
 _atom_site_fract_x
 _atom_site_fract_y
 _atom_site_fract_z
 _atom_site_thermal_displace_type
 _atom_site_B_iso_or_equiv
 _atom_site_type_symbol
Ga1 1.0000000000 0.7662179182 0.7337820818 0.2500000000  Biso 1.0 Ga
Ga2 1.0000000000 0.7337820818 0.7662179182 0.7500000000  Biso 1.0 Ga
Ga3 1.0000000000 0.2337820818 0.2662179182 0.7500000000  Biso 1.0 Ga
Ga4 1.0000000000 0.2662179182 0.2337820818 0.2500000000  Biso 1.0 Ga
Sn5 1.0000000000 0.1113265721 0.8886734279 0.5798795109  Biso 1.0 Sn
Sn6 1.0000000000 0.3886734279 0.6113265721 0.0798795109  Biso 1.0 Sn
Sn7 1.0000000000 0.6113265721 0.3886734279 0.9201204891  Biso 1.0 Sn
Sn8 1.0000000000 0.8886734279 0.1113265721 0.4201204891  Biso 1.0 Sn
Sn9 1.0000000000 0.7207596528 0.2792403472 0.5755846214  Biso 1.0 Sn
Sn10 1.0000000000 0.7792403472 0.2207596528 0.0755846214  Biso 1.0 Sn
Sn11 1.0000000000 0.2207596528 0.7792403472 0.9244153786  Biso 1.0 Sn
Sn12 1.0000000000 0.2792403472 0.7207596528 0.4244153786  Biso 1.0 Sn
V13 1.0000000000 0.9082904917 0.5917095083 0.2500000000  Biso 1.0 V
V14 1.0000000000 0.5917095083 0.9082904917 0.7500000000  Biso 1.0 V
V15 1.0000000000 0.0917095083 0.4082904917 0.7500000000  Biso 1.0 V
V16 1.0000000000 0.4082904917 0.0917095083 0.2500000000  Biso 1.0 V
V17 1.0000000000 0.5727958971 0.4272041029 0.5236781262  Biso 1.0 V
V18 1.0000000000 0.9272041029 0.0727958971 0.0236781262  Biso 1.0 V
V19 1.0000000000 0.0727958971 0.9272041029 0.9763218738  Biso 1.0 V
V20 1.0000000000 0.4272041029 0.5727958971 0.4763218738  Biso 1.0 V
