# AFLOW.org Repositories
# Ga2Ho1   [HEX,HEX,hP3] (STD_PRIM doi:10.
data_Ga2Ho1
_pd_phase_name Ga2Ho1
_cell_length_a  4.2143276053
_cell_length_b  4.2143276053
_cell_length_c  4.0407325005
_cell_angle_alpha  90.0000000000
_cell_angle_beta  90.0000000000
_cell_angle_gamma  120.0000000000
_symmetry_space_group_name_H-M  'P1'
_symmetry_Int_Tables_Number  1
loop_
_symmetry_equiv_pos_site_id
_symmetry_equiv_pos_as_xyz
  1  x,y,z
loop_
 _atom_site_label
 _atom_site_occupancy
 _atom_site_fract_x
 _atom_site_fract_y
 _atom_site_fract_z
 _atom_site_thermal_displace_type
 _atom_site_B_iso_or_equiv
 _atom_site_type_symbol
Ga1 1.0000000000 0.3333412335 0.6666706168 0.5000000000  Biso 1.0 Ga
Ga2 1.0000000000 0.6666587665 0.3333293832 0.5000000000  Biso 1.0 Ga
Ho3 1.0000000000 0.0000000000 0.0000000000 0.0000000000  Biso 1.0 Ho
