# AFLOW.org Repositories
# Ga2Os1   [ORCF,ORCF1,oF24] (STD_PRIM doi
data_Ga2Os1
_pd_phase_name Ga2Os1
_cell_length_a  6.0255407321
_cell_length_b  4.9793857513
_cell_length_c  4.7747930316
_cell_angle_alpha  76.2703793754
_cell_angle_beta  53.3951858604
_cell_angle_gamma  50.3344347642
_symmetry_space_group_name_H-M  'P1'
_symmetry_Int_Tables_Number  1
loop_
_symmetry_equiv_pos_site_id
_symmetry_equiv_pos_as_xyz
  1  x,y,z
loop_
 _atom_site_label
 _atom_site_occupancy
 _atom_site_fract_x
 _atom_site_fract_y
 _atom_site_fract_z
 _atom_site_thermal_displace_type
 _atom_site_B_iso_or_equiv
 _atom_site_type_symbol
Ga1 1.0000000000 0.6677027824 0.3322972176 0.6677027824  Biso 1.0 Ga
Ga2 1.0000000000 0.3322972176 0.6677027824 0.3322972176  Biso 1.0 Ga
Ga3 1.0000000000 0.0822972176 0.4177027824 0.0822972176  Biso 1.0 Ga
Ga4 1.0000000000 0.4177027824 0.0822972176 0.4177027824  Biso 1.0 Ga
Os5 1.0000000000 0.0000000000 0.0000000000 0.0000000000  Biso 1.0 Os
Os6 1.0000000000 0.7500000000 0.7500000000 0.7500000000  Biso 1.0 Os
