# AFLOW.org Repositories
# Ga2Ta3   [TET,TET,tP10] (STD_PRIM doi:10
data_Ga2Ta3
_pd_phase_name Ga2Ta3
_cell_length_a  6.9347214568
_cell_length_b  6.9347214568
_cell_length_c  3.5429751809
_cell_angle_alpha  90.0000000000
_cell_angle_beta  90.0000000000
_cell_angle_gamma  90.0000000000
_symmetry_space_group_name_H-M  'P1'
_symmetry_Int_Tables_Number  1
loop_
_symmetry_equiv_pos_site_id
_symmetry_equiv_pos_as_xyz
  1  x,y,z
loop_
 _atom_site_label
 _atom_site_occupancy
 _atom_site_fract_x
 _atom_site_fract_y
 _atom_site_fract_z
 _atom_site_thermal_displace_type
 _atom_site_B_iso_or_equiv
 _atom_site_type_symbol
Ga1 1.0000000000 0.3746124475 0.8746124475 0.0000000000  Biso 1.0 Ga
Ga2 1.0000000000 0.6253875525 0.1253875525 0.0000000000  Biso 1.0 Ga
Ga3 1.0000000000 0.1253875525 0.3746124475 0.0000000000  Biso 1.0 Ga
Ga4 1.0000000000 0.8746124475 0.6253875525 0.0000000000  Biso 1.0 Ga
Ta5 1.0000000000 0.0000000000 0.0000000000 0.0000000000  Biso 1.0 Ta
Ta6 1.0000000000 0.5000000000 0.5000000000 0.0000000000  Biso 1.0 Ta
Ta7 1.0000000000 0.1760012297 0.6760012297 0.5000000000  Biso 1.0 Ta
Ta8 1.0000000000 0.8239987703 0.3239987703 0.5000000000  Biso 1.0 Ta
Ta9 1.0000000000 0.3239987703 0.1760012297 0.5000000000  Biso 1.0 Ta
Ta10 1.0000000000 0.6760012297 0.8239987703 0.5000000000  Biso 1.0 Ta
