# AFLOW.org Repositories
# Ge1Ir1Mn3   [CUB,CUB,cP20] (STD_PRIM doi
data_Ge1Ir1Mn3
_pd_phase_name Ge1Ir1Mn3
_cell_length_a  6.8673891949
_cell_length_b  6.8673891949
_cell_length_c  6.8673891949
_cell_angle_alpha  90.0000000000
_cell_angle_beta  90.0000000000
_cell_angle_gamma  90.0000000000
_symmetry_space_group_name_H-M  'P1'
_symmetry_Int_Tables_Number  1
loop_
_symmetry_equiv_pos_site_id
_symmetry_equiv_pos_as_xyz
  1  x,y,z
loop_
 _atom_site_label
 _atom_site_occupancy
 _atom_site_fract_x
 _atom_site_fract_y
 _atom_site_fract_z
 _atom_site_thermal_displace_type
 _atom_site_B_iso_or_equiv
 _atom_site_type_symbol
Ge1 1.0000000000 0.9351835200 0.9351835200 0.0648164800  Biso 1.0 Ge
Ge2 1.0000000000 0.5648164800 0.0648164800 0.5648164800  Biso 1.0 Ge
Ge3 1.0000000000 0.0648164800 0.4351835200 0.4351835200  Biso 1.0 Ge
Ge4 1.0000000000 0.4351835200 0.5648164800 0.9351835200  Biso 1.0 Ge
Ir5 1.0000000000 0.3201439532 0.3201439532 0.6798560468  Biso 1.0 Ir
Ir6 1.0000000000 0.1798560468 0.6798560468 0.1798560468  Biso 1.0 Ir
Ir7 1.0000000000 0.6798560468 0.8201439532 0.8201439532  Biso 1.0 Ir
Ir8 1.0000000000 0.8201439532 0.1798560468 0.3201439532  Biso 1.0 Ir
Mn9 1.0000000000 0.8785120020 0.7965275522 0.4571944095  Biso 1.0 Mn
Mn10 1.0000000000 0.6214879980 0.2034724478 0.9571944095  Biso 1.0 Mn
Mn11 1.0000000000 0.1214879980 0.2965275522 0.0428055905  Biso 1.0 Mn
Mn12 1.0000000000 0.3785120020 0.7034724478 0.5428055905  Biso 1.0 Mn
Mn13 1.0000000000 0.5428055905 0.8785120020 0.2034724478  Biso 1.0 Mn
Mn14 1.0000000000 0.0428055905 0.6214879980 0.7965275522  Biso 1.0 Mn
Mn15 1.0000000000 0.9571944095 0.1214879980 0.7034724478  Biso 1.0 Mn
Mn16 1.0000000000 0.4571944095 0.3785120020 0.2965275522  Biso 1.0 Mn
Mn17 1.0000000000 0.7965275522 0.5428055905 0.1214879980  Biso 1.0 Mn
Mn18 1.0000000000 0.2034724478 0.0428055905 0.3785120020  Biso 1.0 Mn
Mn19 1.0000000000 0.2965275522 0.9571944095 0.8785120020  Biso 1.0 Mn
Mn20 1.0000000000 0.7034724478 0.4571944095 0.6214879980  Biso 1.0 Mn
