# AFLOW.org Repositories
# Ge1La1   [ORCC,ORCC,oS16] (STD_PRIM doi:
data_Ge1La1
_pd_phase_name Ge1La1
_cell_length_a  7.3252124879
_cell_length_b  7.3252124879
_cell_length_c  6.8164458639
_cell_angle_alpha  90.0000000000
_cell_angle_beta  90.0000000000
_cell_angle_gamma  143.4272494595
_symmetry_space_group_name_H-M  'P1'
_symmetry_Int_Tables_Number  1
loop_
_symmetry_equiv_pos_site_id
_symmetry_equiv_pos_as_xyz
  1  x,y,z
loop_
 _atom_site_label
 _atom_site_occupancy
 _atom_site_fract_x
 _atom_site_fract_y
 _atom_site_fract_z
 _atom_site_thermal_displace_type
 _atom_site_B_iso_or_equiv
 _atom_site_type_symbol
Ge1 1.0000000000 0.5981370109 0.4018629891 0.4444951390  Biso 1.0 Ge
Ge2 1.0000000000 0.4018629891 0.5981370109 0.9444951390  Biso 1.0 Ge
Ge3 1.0000000000 0.5981370109 0.4018629891 0.0555048610  Biso 1.0 Ge
Ge4 1.0000000000 0.4018629891 0.5981370109 0.5555048610  Biso 1.0 Ge
La5 1.0000000000 0.9517635960 0.0482364040 0.2500000000  Biso 1.0 La
La6 1.0000000000 0.0482364040 0.9517635960 0.7500000000  Biso 1.0 La
La7 1.0000000000 0.7743967626 0.2256032374 0.7500000000  Biso 1.0 La
La8 1.0000000000 0.2256032374 0.7743967626 0.2500000000  Biso 1.0 La
