# AFLOW.org Repositories
# Ge1Ni2Zn3   [FCC,FCC,cF96] (STD_PRIM doi
data_Ge1Ni2Zn3
_pd_phase_name Ge1Ni2Zn3
_cell_length_a  7.6259034630
_cell_length_b  7.6259034630
_cell_length_c  7.6259034630
_cell_angle_alpha  60.0000000000
_cell_angle_beta  60.0000000000
_cell_angle_gamma  60.0000000000
_symmetry_space_group_name_H-M  'P1'
_symmetry_Int_Tables_Number  1
loop_
_symmetry_equiv_pos_site_id
_symmetry_equiv_pos_as_xyz
  1  x,y,z
loop_
 _atom_site_label
 _atom_site_occupancy
 _atom_site_fract_x
 _atom_site_fract_y
 _atom_site_fract_z
 _atom_site_thermal_displace_type
 _atom_site_B_iso_or_equiv
 _atom_site_type_symbol
Ge1 1.0000000000 0.8750000000 0.3750000000 0.3750000000  Biso 1.0 Ge
Ge2 1.0000000000 0.3750000000 0.3750000000 0.8750000000  Biso 1.0 Ge
Ge3 1.0000000000 0.3750000000 0.8750000000 0.3750000000  Biso 1.0 Ge
Ge4 1.0000000000 0.3750000000 0.3750000000 0.3750000000  Biso 1.0 Ge
Ni5 1.0000000000 0.5193280547 0.1602239818 0.1602239818  Biso 1.0 Ni
Ni6 1.0000000000 0.1602239818 0.1602239818 0.5193280547  Biso 1.0 Ni
Ni7 1.0000000000 0.1602239818 0.5193280547 0.1602239818  Biso 1.0 Ni
Ni8 1.0000000000 0.1602239818 0.1602239818 0.1602239818  Biso 1.0 Ni
Ni9 1.0000000000 0.5897760182 0.5897760182 0.2306719453  Biso 1.0 Ni
Ni10 1.0000000000 0.2306719453 0.5897760182 0.5897760182  Biso 1.0 Ni
Ni11 1.0000000000 0.5897760182 0.2306719453 0.5897760182  Biso 1.0 Ni
Ni12 1.0000000000 0.5897760182 0.5897760182 0.5897760182  Biso 1.0 Ni
Zn13 1.0000000000 0.1847510286 0.8152489714 0.8152489714  Biso 1.0 Zn
Zn14 1.0000000000 0.8152489714 0.1847510286 0.1847510286  Biso 1.0 Zn
Zn15 1.0000000000 0.1847510286 0.1847510286 0.8152489714  Biso 1.0 Zn
Zn16 1.0000000000 0.8152489714 0.8152489714 0.1847510286  Biso 1.0 Zn
Zn17 1.0000000000 0.1847510286 0.8152489714 0.1847510286  Biso 1.0 Zn
Zn18 1.0000000000 0.8152489714 0.1847510286 0.8152489714  Biso 1.0 Zn
Zn19 1.0000000000 0.9347510286 0.9347510286 0.5652489714  Biso 1.0 Zn
Zn20 1.0000000000 0.5652489714 0.5652489714 0.9347510286  Biso 1.0 Zn
Zn21 1.0000000000 0.9347510286 0.5652489714 0.5652489714  Biso 1.0 Zn
Zn22 1.0000000000 0.5652489714 0.9347510286 0.9347510286  Biso 1.0 Zn
Zn23 1.0000000000 0.5652489714 0.9347510286 0.5652489714  Biso 1.0 Zn
Zn24 1.0000000000 0.9347510286 0.5652489714 0.9347510286  Biso 1.0 Zn
