# AFLOW.org Repositories
# Ge1Ni2O4   [FCC,FCC,cF56] (STD_PRIM doi:
data_Ge1Ni2O4
_pd_phase_name Ge1Ni2O4
_cell_length_a  5.8797390137
_cell_length_b  5.8797390137
_cell_length_c  5.8797390137
_cell_angle_alpha  60.0000000000
_cell_angle_beta  60.0000000000
_cell_angle_gamma  60.0000000000
_symmetry_space_group_name_H-M  'P1'
_symmetry_Int_Tables_Number  1
loop_
_symmetry_equiv_pos_site_id
_symmetry_equiv_pos_as_xyz
  1  x,y,z
loop_
 _atom_site_label
 _atom_site_occupancy
 _atom_site_fract_x
 _atom_site_fract_y
 _atom_site_fract_z
 _atom_site_thermal_displace_type
 _atom_site_B_iso_or_equiv
 _atom_site_type_symbol
Ge1 1.0000000000 0.0000000000 0.0000000000 0.0000000000  Biso 1.0 Ge
Ge2 1.0000000000 0.2500000000 0.2500000000 0.2500000000  Biso 1.0 Ge
Ni3 1.0000000000 0.6250000000 0.6250000000 0.6250000000  Biso 1.0 Ni
Ni4 1.0000000000 0.1250000000 0.6250000000 0.6250000000  Biso 1.0 Ni
Ni5 1.0000000000 0.6250000000 0.6250000000 0.1250000000  Biso 1.0 Ni
Ni6 1.0000000000 0.6250000000 0.1250000000 0.6250000000  Biso 1.0 Ni
O7 1.0000000000 0.3754441487 0.3754441487 0.3754441487  Biso 1.0 O
O8 1.0000000000 0.8736675539 0.3754441487 0.3754441487  Biso 1.0 O
O9 1.0000000000 0.3754441487 0.3754441487 0.8736675539  Biso 1.0 O
O10 1.0000000000 0.3754441487 0.8736675539 0.3754441487  Biso 1.0 O
O11 1.0000000000 0.3763324461 0.8745558513 0.8745558513  Biso 1.0 O
O12 1.0000000000 0.8745558513 0.8745558513 0.8745558513  Biso 1.0 O
O13 1.0000000000 0.8745558513 0.8745558513 0.3763324461  Biso 1.0 O
O14 1.0000000000 0.8745558513 0.3763324461 0.8745558513  Biso 1.0 O
