# AFLOW.org Repositories
# Ge1Pt2   [HEX,HEX,hP9] (STD_PRIM doi:10.
data_Ge1Pt2
_pd_phase_name Ge1Pt2
_cell_length_a  6.7369503475
_cell_length_b  6.7369503475
_cell_length_c  3.5635786559
_cell_angle_alpha  90.0000000000
_cell_angle_beta  90.0000000000
_cell_angle_gamma  120.0000000000
_symmetry_space_group_name_H-M  'P1'
_symmetry_Int_Tables_Number  1
loop_
_symmetry_equiv_pos_site_id
_symmetry_equiv_pos_as_xyz
  1  x,y,z
loop_
 _atom_site_label
 _atom_site_occupancy
 _atom_site_fract_x
 _atom_site_fract_y
 _atom_site_fract_z
 _atom_site_thermal_displace_type
 _atom_site_B_iso_or_equiv
 _atom_site_type_symbol
Ge1 1.0000000000 0.0000000000 0.0000000000 0.5000000000  Biso 1.0 Ge
Ge2 1.0000000000 0.6666779400 0.3333405465 0.0000000000  Biso 1.0 Ge
Ge3 1.0000000000 0.3333373934 0.6666594535 0.0000000000  Biso 1.0 Ge
Pt4 1.0000000000 0.0000000000 0.7231395968 0.0000000000  Biso 1.0 Pt
Pt5 1.0000000000 0.2768604032 0.2768604032 0.0000000000  Biso 1.0 Pt
Pt6 1.0000000000 0.7231365989 0.0000000000 0.0000000000  Biso 1.0 Pt
Pt7 1.0000000000 0.0000000000 0.3851827516 0.5000000000  Biso 1.0 Pt
Pt8 1.0000000000 0.6148172484 0.6148172484 0.5000000000  Biso 1.0 Pt
Pt9 1.0000000000 0.3851774643 0.0000000000 0.5000000000  Biso 1.0 Pt
