# AFLOW.org Repositories
# Ge1Pt1Sr1   [CUB,CUB,cP12] (STD_PRIM doi
data_Ge1Pt1Sr1
_pd_phase_name Ge1Pt1Sr1
_cell_length_a  6.6656454992
_cell_length_b  6.6656454992
_cell_length_c  6.6656454992
_cell_angle_alpha  90.0000000000
_cell_angle_beta  90.0000000000
_cell_angle_gamma  90.0000000000
_symmetry_space_group_name_H-M  'P1'
_symmetry_Int_Tables_Number  1
loop_
_symmetry_equiv_pos_site_id
_symmetry_equiv_pos_as_xyz
  1  x,y,z
loop_
 _atom_site_label
 _atom_site_occupancy
 _atom_site_fract_x
 _atom_site_fract_y
 _atom_site_fract_z
 _atom_site_thermal_displace_type
 _atom_site_B_iso_or_equiv
 _atom_site_type_symbol
Ge1 1.0000000000 0.1653374118 0.1653374118 0.8346625882  Biso 1.0 Ge
Ge2 1.0000000000 0.3346625882 0.8346625882 0.3346625882  Biso 1.0 Ge
Ge3 1.0000000000 0.8346625882 0.6653374118 0.6653374118  Biso 1.0 Ge
Ge4 1.0000000000 0.6653374118 0.3346625882 0.1653374118  Biso 1.0 Ge
Pt5 1.0000000000 0.5828838043 0.5828838043 0.4171161957  Biso 1.0 Pt
Pt6 1.0000000000 0.9171161957 0.4171161957 0.9171161957  Biso 1.0 Pt
Pt7 1.0000000000 0.4171161957 0.0828838043 0.0828838043  Biso 1.0 Pt
Pt8 1.0000000000 0.0828838043 0.9171161957 0.5828838043  Biso 1.0 Pt
Sr9 1.0000000000 0.8635087734 0.8635087734 0.1364912266  Biso 1.0 Sr
Sr10 1.0000000000 0.6364912266 0.1364912266 0.6364912266  Biso 1.0 Sr
Sr11 1.0000000000 0.1364912266 0.3635087734 0.3635087734  Biso 1.0 Sr
Sr12 1.0000000000 0.3635087734 0.6364912266 0.8635087734  Biso 1.0 Sr
