# AFLOW.org Repositories
# Ge1Pt1Zr1   [ORC,ORC,oP12] (STD_PRIM doi
data_Ge1Pt1Zr1
_pd_phase_name Ge1Pt1Zr1
_cell_length_a  4.0017373531
_cell_length_b  6.7102990451
_cell_length_c  7.7390713581
_cell_angle_alpha  90.0000000000
_cell_angle_beta  90.0000000000
_cell_angle_gamma  90.0000000000
_symmetry_space_group_name_H-M  'P1'
_symmetry_Int_Tables_Number  1
loop_
_symmetry_equiv_pos_site_id
_symmetry_equiv_pos_as_xyz
  1  x,y,z
loop_
 _atom_site_label
 _atom_site_occupancy
 _atom_site_fract_x
 _atom_site_fract_y
 _atom_site_fract_z
 _atom_site_thermal_displace_type
 _atom_site_B_iso_or_equiv
 _atom_site_type_symbol
Ge1 1.0000000000 0.2500000000 0.2551231138 0.6214807876  Biso 1.0 Ge
Ge2 1.0000000000 0.7500000000 0.2448768862 0.1214807876  Biso 1.0 Ge
Ge3 1.0000000000 0.7500000000 0.7448768862 0.3785192124  Biso 1.0 Ge
Ge4 1.0000000000 0.2500000000 0.7551231138 0.8785192124  Biso 1.0 Ge
Pt5 1.0000000000 0.2500000000 0.1449444021 0.9366674307  Biso 1.0 Pt
Pt6 1.0000000000 0.7500000000 0.3550555979 0.4366674307  Biso 1.0 Pt
Pt7 1.0000000000 0.7500000000 0.8550555979 0.0633325693  Biso 1.0 Pt
Pt8 1.0000000000 0.2500000000 0.6449444021 0.5633325693  Biso 1.0 Pt
Zr9 1.0000000000 0.2500000000 0.0274473345 0.3167995888  Biso 1.0 Zr
Zr10 1.0000000000 0.7500000000 0.4725526655 0.8167995888  Biso 1.0 Zr
Zr11 1.0000000000 0.7500000000 0.9725526655 0.6832004112  Biso 1.0 Zr
Zr12 1.0000000000 0.2500000000 0.5274473345 0.1832004112  Biso 1.0 Zr
