# AFLOW.org Repositories
# Ge1Rh1   [CUB,CUB,cP8] (STD_PRIM doi:10.
data_Ge1Rh1
_pd_phase_name Ge1Rh1
_cell_length_a  4.9176718005
_cell_length_b  4.9176718005
_cell_length_c  4.9176718005
_cell_angle_alpha  90.0000000000
_cell_angle_beta  90.0000000000
_cell_angle_gamma  90.0000000000
_symmetry_space_group_name_H-M  'P1'
_symmetry_Int_Tables_Number  1
loop_
_symmetry_equiv_pos_site_id
_symmetry_equiv_pos_as_xyz
  1  x,y,z
loop_
 _atom_site_label
 _atom_site_occupancy
 _atom_site_fract_x
 _atom_site_fract_y
 _atom_site_fract_z
 _atom_site_thermal_displace_type
 _atom_site_B_iso_or_equiv
 _atom_site_type_symbol
Ge1 1.0000000000 0.1634724921 0.1634724921 0.8365275079  Biso 1.0 Ge
Ge2 1.0000000000 0.3365275079 0.8365275079 0.3365275079  Biso 1.0 Ge
Ge3 1.0000000000 0.8365275079 0.6634724921 0.6634724921  Biso 1.0 Ge
Ge4 1.0000000000 0.6634724921 0.3365275079 0.1634724921  Biso 1.0 Ge
Rh5 1.0000000000 0.8765857405 0.8765857405 0.1234142595  Biso 1.0 Rh
Rh6 1.0000000000 0.6234142595 0.1234142595 0.6234142595  Biso 1.0 Rh
Rh7 1.0000000000 0.1234142595 0.3765857405 0.3765857405  Biso 1.0 Rh
Rh8 1.0000000000 0.3765857405 0.6234142595 0.8765857405  Biso 1.0 Rh
