# AFLOW.org Repositories
# Ge1Rh1Tb1   [ORC,ORC,oP12] (STD_PRIM doi
data_Ge1Rh1Tb1
_pd_phase_name Ge1Rh1Tb1
_cell_length_a  4.4117880489
_cell_length_b  6.9381879432
_cell_length_c  7.4558105613
_cell_angle_alpha  90.0000000000
_cell_angle_beta  90.0000000000
_cell_angle_gamma  90.0000000000
_symmetry_space_group_name_H-M  'P1'
_symmetry_Int_Tables_Number  1
loop_
_symmetry_equiv_pos_site_id
_symmetry_equiv_pos_as_xyz
  1  x,y,z
loop_
 _atom_site_label
 _atom_site_occupancy
 _atom_site_fract_x
 _atom_site_fract_y
 _atom_site_fract_z
 _atom_site_thermal_displace_type
 _atom_site_B_iso_or_equiv
 _atom_site_type_symbol
Ge1 1.0000000000 0.2500000000 0.8180919967 0.4181084228  Biso 1.0 Ge
Ge2 1.0000000000 0.7500000000 0.6819080033 0.9181084228  Biso 1.0 Ge
Ge3 1.0000000000 0.7500000000 0.1819080033 0.5818915772  Biso 1.0 Ge
Ge4 1.0000000000 0.2500000000 0.3180919967 0.0818915772  Biso 1.0 Ge
Rh5 1.0000000000 0.2500000000 0.2026359341 0.4084878265  Biso 1.0 Rh
Rh6 1.0000000000 0.7500000000 0.2973640659 0.9084878265  Biso 1.0 Rh
Rh7 1.0000000000 0.7500000000 0.7973640659 0.5915121735  Biso 1.0 Rh
Rh8 1.0000000000 0.2500000000 0.7026359341 0.0915121735  Biso 1.0 Rh
Tb9 1.0000000000 0.2500000000 0.9829065502 0.8021561754  Biso 1.0 Tb
Tb10 1.0000000000 0.7500000000 0.5170934498 0.3021561754  Biso 1.0 Tb
Tb11 1.0000000000 0.7500000000 0.0170934498 0.1978438246  Biso 1.0 Tb
Tb12 1.0000000000 0.2500000000 0.4829065502 0.6978438246  Biso 1.0 Tb
