# AFLOW.org Repositories
# Ge2Sc1   [ORCC,ORCC,oS12] (STD_PRIM doi:
data_Ge2Sc1
_pd_phase_name Ge2Sc1
_cell_length_a  7.8125286402
_cell_length_b  7.8125286402
_cell_length_c  3.8575503038
_cell_angle_alpha  90.0000000000
_cell_angle_beta  90.0000000000
_cell_angle_gamma  150.6755297302
_symmetry_space_group_name_H-M  'P1'
_symmetry_Int_Tables_Number  1
loop_
_symmetry_equiv_pos_site_id
_symmetry_equiv_pos_as_xyz
  1  x,y,z
loop_
 _atom_site_label
 _atom_site_occupancy
 _atom_site_fract_x
 _atom_site_fract_y
 _atom_site_fract_z
 _atom_site_thermal_displace_type
 _atom_site_B_iso_or_equiv
 _atom_site_type_symbol
Ge1 1.0000000000 0.5581268940 0.4418731060 0.7500000000  Biso 1.0 Ge
Ge2 1.0000000000 0.4418731060 0.5581268940 0.2500000000  Biso 1.0 Ge
Ge3 1.0000000000 0.2515399542 0.7484600458 0.7500000000  Biso 1.0 Ge
Ge4 1.0000000000 0.7484600458 0.2515399542 0.2500000000  Biso 1.0 Ge
Sc5 1.0000000000 0.8983099711 0.1016900289 0.7500000000  Biso 1.0 Sc
Sc6 1.0000000000 0.1016900289 0.8983099711 0.2500000000  Biso 1.0 Sc
