# AFLOW.org Repositories
# Ge2W1   [ORC,ORC,oP12] (STD_PRIM doi:10.
data_Ge2W1
_pd_phase_name Ge2W1
_cell_length_a  3.4982390906
_cell_length_b  6.4526451913
_cell_length_c  8.6166573495
_cell_angle_alpha  90.0000000000
_cell_angle_beta  90.0000000000
_cell_angle_gamma  90.0000000000
_symmetry_space_group_name_H-M  'P1'
_symmetry_Int_Tables_Number  1
loop_
_symmetry_equiv_pos_site_id
_symmetry_equiv_pos_as_xyz
  1  x,y,z
loop_
 _atom_site_label
 _atom_site_occupancy
 _atom_site_fract_x
 _atom_site_fract_y
 _atom_site_fract_z
 _atom_site_thermal_displace_type
 _atom_site_B_iso_or_equiv
 _atom_site_type_symbol
Ge1 1.0000000000 0.2500000000 0.8655453395 0.9598055476  Biso 1.0 Ge
Ge2 1.0000000000 0.7500000000 0.6344546605 0.4598055476  Biso 1.0 Ge
Ge3 1.0000000000 0.7500000000 0.1344546605 0.0401944524  Biso 1.0 Ge
Ge4 1.0000000000 0.2500000000 0.3655453395 0.5401944524  Biso 1.0 Ge
Ge5 1.0000000000 0.2500000000 0.9373827258 0.3678699833  Biso 1.0 Ge
Ge6 1.0000000000 0.7500000000 0.5626172742 0.8678699833  Biso 1.0 Ge
Ge7 1.0000000000 0.7500000000 0.0626172742 0.6321300167  Biso 1.0 Ge
Ge8 1.0000000000 0.2500000000 0.4373827258 0.1321300167  Biso 1.0 Ge
W9 1.0000000000 0.2500000000 0.2509455657 0.8291778861  Biso 1.0 W
W10 1.0000000000 0.7500000000 0.2490544343 0.3291778861  Biso 1.0 W
W11 1.0000000000 0.7500000000 0.7490544343 0.1708221139  Biso 1.0 W
W12 1.0000000000 0.2500000000 0.7509455657 0.6708221139  Biso 1.0 W
