# AFLOW.org Repositories
# Ge3La2Li2   [ORCC,ORCC,oS28] (STD_PRIM d
data_Ge3La2Li2
_pd_phase_name Ge3La2Li2
_cell_length_a  9.8386906943
_cell_length_b  9.8386906943
_cell_length_c  7.0665989397
_cell_angle_alpha  90.0000000000
_cell_angle_beta  90.0000000000
_cell_angle_gamma  153.1907195997
_symmetry_space_group_name_H-M  'P1'
_symmetry_Int_Tables_Number  1
loop_
_symmetry_equiv_pos_site_id
_symmetry_equiv_pos_as_xyz
  1  x,y,z
loop_
 _atom_site_label
 _atom_site_occupancy
 _atom_site_fract_x
 _atom_site_fract_y
 _atom_site_fract_z
 _atom_site_thermal_displace_type
 _atom_site_B_iso_or_equiv
 _atom_site_type_symbol
Ge1 1.0000000000 0.9390456497 0.0609543503 0.9305012476  Biso 1.0 Ge
Ge2 1.0000000000 0.0609543503 0.9390456497 0.4305012476  Biso 1.0 Ge
Ge3 1.0000000000 0.9390456497 0.0609543503 0.5694987524  Biso 1.0 Ge
Ge4 1.0000000000 0.0609543503 0.9390456497 0.0694987524  Biso 1.0 Ge
Ge5 1.0000000000 0.7198266898 0.2801733102 0.7500000000  Biso 1.0 Ge
Ge6 1.0000000000 0.2801733102 0.7198266898 0.2500000000  Biso 1.0 Ge
La7 1.0000000000 0.5517836999 0.4482163001 0.7500000000  Biso 1.0 La
La8 1.0000000000 0.4482163001 0.5517836999 0.2500000000  Biso 1.0 La
La9 1.0000000000 0.3406283394 0.6593716606 0.7500000000  Biso 1.0 La
La10 1.0000000000 0.6593716606 0.3406283394 0.2500000000  Biso 1.0 La
Li11 1.0000000000 0.8103679300 0.1896320700 0.4389902960  Biso 1.0 Li
Li12 1.0000000000 0.1896320700 0.8103679300 0.9389902960  Biso 1.0 Li
Li13 1.0000000000 0.8103679300 0.1896320700 0.0610097040  Biso 1.0 Li
Li14 1.0000000000 0.1896320700 0.8103679300 0.5610097040  Biso 1.0 Li
