# AFLOW.org Repositories
# Ge3Pt2   [ORC,ORC,oP20] (STD_PRIM doi:10
data_Ge3Pt2
_pd_phase_name Ge3Pt2
_cell_length_a  3.4521959397
_cell_length_b  6.2593840267
_cell_length_c  16.5859258625
_cell_angle_alpha  90.0000000000
_cell_angle_beta  90.0000000000
_cell_angle_gamma  90.0000000000
_symmetry_space_group_name_H-M  'P1'
_symmetry_Int_Tables_Number  1
loop_
_symmetry_equiv_pos_site_id
_symmetry_equiv_pos_as_xyz
  1  x,y,z
loop_
 _atom_site_label
 _atom_site_occupancy
 _atom_site_fract_x
 _atom_site_fract_y
 _atom_site_fract_z
 _atom_site_thermal_displace_type
 _atom_site_B_iso_or_equiv
 _atom_site_type_symbol
Ge1 1.0000000000 0.7500000000 0.0603925917 0.4289570760  Biso 1.0 Ge
Ge2 1.0000000000 0.2500000000 0.5603925917 0.0710429240  Biso 1.0 Ge
Ge3 1.0000000000 0.2500000000 0.9396074083 0.5710429240  Biso 1.0 Ge
Ge4 1.0000000000 0.7500000000 0.4396074083 0.9289570760  Biso 1.0 Ge
Ge5 1.0000000000 0.7500000000 0.3407649378 0.2319070787  Biso 1.0 Ge
Ge6 1.0000000000 0.2500000000 0.8407649378 0.2680929213  Biso 1.0 Ge
Ge7 1.0000000000 0.2500000000 0.6592350622 0.7680929213  Biso 1.0 Ge
Ge8 1.0000000000 0.7500000000 0.1592350622 0.7319070787  Biso 1.0 Ge
Ge9 1.0000000000 0.7500000000 0.0857593272 0.1113072482  Biso 1.0 Ge
Ge10 1.0000000000 0.2500000000 0.5857593272 0.3886927518  Biso 1.0 Ge
Ge11 1.0000000000 0.2500000000 0.9142406728 0.8886927518  Biso 1.0 Ge
Ge12 1.0000000000 0.7500000000 0.4142406728 0.6113072482  Biso 1.0 Ge
Pt13 1.0000000000 0.7500000000 0.6957806298 0.4932351859  Biso 1.0 Pt
Pt14 1.0000000000 0.2500000000 0.1957806298 0.0067648141  Biso 1.0 Pt
Pt15 1.0000000000 0.2500000000 0.3042193702 0.5067648141  Biso 1.0 Pt
Pt16 1.0000000000 0.7500000000 0.8042193702 0.9932351859  Biso 1.0 Pt
Pt17 1.0000000000 0.7500000000 0.7066727191 0.1709928693  Biso 1.0 Pt
Pt18 1.0000000000 0.2500000000 0.2066727191 0.3290071307  Biso 1.0 Pt
Pt19 1.0000000000 0.2500000000 0.2933272809 0.8290071307  Biso 1.0 Pt
Pt20 1.0000000000 0.7500000000 0.7933272809 0.6709928693  Biso 1.0 Pt
