# AFLOW.org Repositories
# Ge3Ta5   [BCT,BCT1,tI32] (STD_PRIM doi:1
data_Ge3Ta5
_pd_phase_name Ge3Ta5
_cell_length_a  7.6896825131
_cell_length_b  7.6896825131
_cell_length_c  7.6896825131
_cell_angle_alpha  96.6646524676
_cell_angle_beta  96.6646524676
_cell_angle_gamma  140.1642527743
_symmetry_space_group_name_H-M  'P1'
_symmetry_Int_Tables_Number  1
loop_
_symmetry_equiv_pos_site_id
_symmetry_equiv_pos_as_xyz
  1  x,y,z
loop_
 _atom_site_label
 _atom_site_occupancy
 _atom_site_fract_x
 _atom_site_fract_y
 _atom_site_fract_z
 _atom_site_thermal_displace_type
 _atom_site_B_iso_or_equiv
 _atom_site_type_symbol
Ge1 1.0000000000 0.7500000000 0.7500000000 0.0000000000  Biso 1.0 Ge
Ge2 1.0000000000 0.2500000000 0.2500000000 0.0000000000  Biso 1.0 Ge
Ge3 1.0000000000 0.6671452299 0.8328547701 0.5000000000  Biso 1.0 Ge
Ge4 1.0000000000 0.3328547701 0.1671452299 0.5000000000  Biso 1.0 Ge
Ge5 1.0000000000 0.1671452299 0.6671452299 0.8342904598  Biso 1.0 Ge
Ge6 1.0000000000 0.8328547701 0.3328547701 0.1657095402  Biso 1.0 Ge
Ta7 1.0000000000 0.2500000000 0.7500000000 0.5000000000  Biso 1.0 Ta
Ta8 1.0000000000 0.7500000000 0.2500000000 0.5000000000  Biso 1.0 Ta
Ta9 1.0000000000 0.2233142765 0.9257080794 0.1490223559  Biso 1.0 Ta
Ta10 1.0000000000 0.7766857235 0.0742919206 0.8509776441  Biso 1.0 Ta
Ta11 1.0000000000 0.0742919206 0.2233142765 0.2976061971  Biso 1.0 Ta
Ta12 1.0000000000 0.9257080794 0.7766857235 0.7023938029  Biso 1.0 Ta
Ta13 1.0000000000 0.7233142765 0.5742919206 0.2976061971  Biso 1.0 Ta
Ta14 1.0000000000 0.2766857235 0.4257080794 0.7023938029  Biso 1.0 Ta
Ta15 1.0000000000 0.5742919206 0.2766857235 0.8509776441  Biso 1.0 Ta
Ta16 1.0000000000 0.4257080794 0.7233142765 0.1490223559  Biso 1.0 Ta
