# AFLOW.org Repositories
# H2Sr1   [ORC,ORC,oP12] (STD_PRIM doi:10.
data_H2Sr1
_pd_phase_name H2Sr1
_cell_length_a  3.8464727230
_cell_length_b  6.3354297827
_cell_length_c  7.2782889165
_cell_angle_alpha  90.0000000000
_cell_angle_beta  90.0000000000
_cell_angle_gamma  90.0000000000
_symmetry_space_group_name_H-M  'P1'
_symmetry_Int_Tables_Number  1
loop_
_symmetry_equiv_pos_site_id
_symmetry_equiv_pos_as_xyz
  1  x,y,z
loop_
 _atom_site_label
 _atom_site_occupancy
 _atom_site_fract_x
 _atom_site_fract_y
 _atom_site_fract_z
 _atom_site_thermal_displace_type
 _atom_site_B_iso_or_equiv
 _atom_site_type_symbol
H1 1.0000000000 0.2500000000 0.6449392058 0.0724502736  Biso 1.0 H
H2 1.0000000000 0.7500000000 0.8550607942 0.5724502736  Biso 1.0 H
H3 1.0000000000 0.7500000000 0.3550607942 0.9275497264  Biso 1.0 H
H4 1.0000000000 0.2500000000 0.1449392058 0.4275497264  Biso 1.0 H
H5 1.0000000000 0.2500000000 0.0263453907 0.8215666304  Biso 1.0 H
H6 1.0000000000 0.7500000000 0.4736546093 0.3215666304  Biso 1.0 H
H7 1.0000000000 0.7500000000 0.9736546093 0.1784333696  Biso 1.0 H
H8 1.0000000000 0.2500000000 0.5263453907 0.6784333696  Biso 1.0 H
Sr9 1.0000000000 0.2500000000 0.2605203589 0.1109363423  Biso 1.0 Sr
Sr10 1.0000000000 0.7500000000 0.2394796411 0.6109363423  Biso 1.0 Sr
Sr11 1.0000000000 0.7500000000 0.7394796411 0.8890636577  Biso 1.0 Sr
Sr12 1.0000000000 0.2500000000 0.7605203589 0.3890636577  Biso 1.0 Sr
