# AFLOW.org Repositories
# Hf1La3Sb5   [HEX,HEX,hP18] (STD_PRIM doi
data_Hf1La3Sb5
_pd_phase_name Hf1La3Sb5
_cell_length_a  9.7030831391
_cell_length_b  9.7030831391
_cell_length_c  6.4067737277
_cell_angle_alpha  90.0000000000
_cell_angle_beta  90.0000000000
_cell_angle_gamma  120.0000000000
_symmetry_space_group_name_H-M  'P1'
_symmetry_Int_Tables_Number  1
loop_
_symmetry_equiv_pos_site_id
_symmetry_equiv_pos_as_xyz
  1  x,y,z
loop_
 _atom_site_label
 _atom_site_occupancy
 _atom_site_fract_x
 _atom_site_fract_y
 _atom_site_fract_z
 _atom_site_thermal_displace_type
 _atom_site_B_iso_or_equiv
 _atom_site_type_symbol
Hf1 1.0000000000 0.0000000000 0.0000000000 0.0000000000  Biso 1.0 Hf
Hf2 1.0000000000 0.0000000000 0.0000000000 0.5000000000  Biso 1.0 Hf
La3 1.0000000000 0.0000000000 0.3817267222 0.2500000000  Biso 1.0 La
La4 1.0000000000 0.6182722555 0.6182722555 0.2500000000  Biso 1.0 La
La5 1.0000000000 0.3817394875 0.0000000000 0.2500000000  Biso 1.0 La
La6 1.0000000000 0.0000000000 0.6182732778 0.7500000000  Biso 1.0 La
La7 1.0000000000 0.3817277445 0.3817277445 0.7500000000  Biso 1.0 La
La8 1.0000000000 0.6182605125 0.0000000000 0.7500000000  Biso 1.0 La
Sb9 1.0000000000 0.0000000000 0.7427219189 0.2500000000  Biso 1.0 Sb
Sb10 1.0000000000 0.2572767356 0.2572767356 0.2500000000  Biso 1.0 Sb
Sb11 1.0000000000 0.7427156769 0.0000000000 0.2500000000  Biso 1.0 Sb
Sb12 1.0000000000 0.0000000000 0.2572780811 0.7500000000  Biso 1.0 Sb
Sb13 1.0000000000 0.7427232644 0.7427232644 0.7500000000  Biso 1.0 Sb
Sb14 1.0000000000 0.2572843231 0.0000000000 0.7500000000  Biso 1.0 Sb
Sb15 1.0000000000 0.6666747338 0.3333480133 0.0000000000  Biso 1.0 Sb
Sb16 1.0000000000 0.3333252662 0.6666519867 0.5000016740  Biso 1.0 Sb
Sb17 1.0000000000 0.3333252662 0.6666519867 0.0000000000  Biso 1.0 Sb
Sb18 1.0000000000 0.6666747338 0.3333480133 0.4999983260  Biso 1.0 Sb
