# AFLOW.org Repositories
# Hf1O3Sr1   [ORC,ORC,oP20] (STD_PRIM doi:
data_Hf1O3Sr1
_pd_phase_name Hf1O3Sr1
_cell_length_a  5.8005119833
_cell_length_b  5.8314266176
_cell_length_c  8.2157315166
_cell_angle_alpha  90.0000000000
_cell_angle_beta  90.0000000000
_cell_angle_gamma  90.0000000000
_symmetry_space_group_name_H-M  'P1'
_symmetry_Int_Tables_Number  1
loop_
_symmetry_equiv_pos_site_id
_symmetry_equiv_pos_as_xyz
  1  x,y,z
loop_
 _atom_site_label
 _atom_site_occupancy
 _atom_site_fract_x
 _atom_site_fract_y
 _atom_site_fract_z
 _atom_site_thermal_displace_type
 _atom_site_B_iso_or_equiv
 _atom_site_type_symbol
Hf1 1.0000000000 0.5000000000 0.0000000000 0.0000000000  Biso 1.0 Hf
Hf2 1.0000000000 0.0000000000 0.5000000000 0.0000000000  Biso 1.0 Hf
Hf3 1.0000000000 0.5000000000 0.0000000000 0.5000000000  Biso 1.0 Hf
Hf4 1.0000000000 0.0000000000 0.5000000000 0.5000000000  Biso 1.0 Hf
O5 1.0000000000 0.7181781059 0.7182907120 0.9648238176  Biso 1.0 O
O6 1.0000000000 0.2181781059 0.7817092880 0.0351761824  Biso 1.0 O
O7 1.0000000000 0.2818218941 0.2817092880 0.4648238176  Biso 1.0 O
O8 1.0000000000 0.7818218941 0.2182907120 0.5351761824  Biso 1.0 O
O9 1.0000000000 0.2818218941 0.2817092880 0.0351761824  Biso 1.0 O
O10 1.0000000000 0.7818218941 0.2182907120 0.9648238176  Biso 1.0 O
O11 1.0000000000 0.7181781059 0.7182907120 0.5351761824  Biso 1.0 O
O12 1.0000000000 0.2181781059 0.7817092880 0.4648238176  Biso 1.0 O
O13 1.0000000000 0.0671131407 0.5143177313 0.7500000000  Biso 1.0 O
O14 1.0000000000 0.5671131407 0.9856822687 0.2500000000  Biso 1.0 O
O15 1.0000000000 0.9328868593 0.4856822687 0.2500000000  Biso 1.0 O
O16 1.0000000000 0.4328868593 0.0143177313 0.7500000000  Biso 1.0 O
Sr17 1.0000000000 0.9947041400 0.9750807888 0.7500000000  Biso 1.0 Sr
Sr18 1.0000000000 0.4947041400 0.5249192112 0.2500000000  Biso 1.0 Sr
Sr19 1.0000000000 0.0052958600 0.0249192112 0.2500000000  Biso 1.0 Sr
Sr20 1.0000000000 0.5052958600 0.4750807888 0.7500000000  Biso 1.0 Sr
