# AFLOW.org Repositories
# Hf1P1Ru1   [HEX,HEX,hP9] (STD_PRIM doi:1
data_Hf1P1Ru1
_pd_phase_name Hf1P1Ru1
_cell_length_a  6.4405129442
_cell_length_b  6.4405129442
_cell_length_c  3.7697866092
_cell_angle_alpha  90.0000000000
_cell_angle_beta  90.0000000000
_cell_angle_gamma  120.0000000000
_symmetry_space_group_name_H-M  'P1'
_symmetry_Int_Tables_Number  1
loop_
_symmetry_equiv_pos_site_id
_symmetry_equiv_pos_as_xyz
  1  x,y,z
loop_
 _atom_site_label
 _atom_site_occupancy
 _atom_site_fract_x
 _atom_site_fract_y
 _atom_site_fract_z
 _atom_site_thermal_displace_type
 _atom_site_B_iso_or_equiv
 _atom_site_type_symbol
Hf1 1.0000000000 0.4150227781 0.4150227781 0.5000000000  Biso 1.0 Hf
Hf2 1.0000000000 0.5849666803 0.0000000000 0.5000000000  Biso 1.0 Hf
Hf3 1.0000000000 0.0000000000 0.5849995131 0.5000000000  Biso 1.0 Hf
P4 1.0000000000 0.0000000000 0.0000000000 0.5000000000  Biso 1.0 P
P5 1.0000000000 0.3333503113 0.6666788433 0.0000000000  Biso 1.0 P
P6 1.0000000000 0.6666496887 0.3333285320 0.0000000000  Biso 1.0 P
Ru7 1.0000000000 0.7533894049 0.7533894049 0.0000000000  Biso 1.0 Ru
Ru8 1.0000000000 0.2466161443 0.0000000000 0.0000000000  Biso 1.0 Ru
Ru9 1.0000000000 0.0000000000 0.2465867493 0.0000000000  Biso 1.0 Ru
