# AFLOW.org Repositories
# Hf2Ni2Sn1   [TET,TET,tP10] (STD_PRIM doi
data_Hf2Ni2Sn1
_pd_phase_name Hf2Ni2Sn1
_cell_length_a  7.0584908028
_cell_length_b  7.0584908028
_cell_length_c  3.4067297128
_cell_angle_alpha  90.0000000000
_cell_angle_beta  90.0000000000
_cell_angle_gamma  90.0000000000
_symmetry_space_group_name_H-M  'P1'
_symmetry_Int_Tables_Number  1
loop_
_symmetry_equiv_pos_site_id
_symmetry_equiv_pos_as_xyz
  1  x,y,z
loop_
 _atom_site_label
 _atom_site_occupancy
 _atom_site_fract_x
 _atom_site_fract_y
 _atom_site_fract_z
 _atom_site_thermal_displace_type
 _atom_site_B_iso_or_equiv
 _atom_site_type_symbol
Hf1 1.0000000000 0.1643015312 0.6643015312 0.5000000000  Biso 1.0 Hf
Hf2 1.0000000000 0.8356984688 0.3356984688 0.5000000000  Biso 1.0 Hf
Hf3 1.0000000000 0.3356984688 0.1643015312 0.5000000000  Biso 1.0 Hf
Hf4 1.0000000000 0.6643015312 0.8356984688 0.5000000000  Biso 1.0 Hf
Ni5 1.0000000000 0.3750238224 0.8750238224 0.0000000000  Biso 1.0 Ni
Ni6 1.0000000000 0.6249761776 0.1249761776 0.0000000000  Biso 1.0 Ni
Ni7 1.0000000000 0.1249761776 0.3750238224 0.0000000000  Biso 1.0 Ni
Ni8 1.0000000000 0.8750238224 0.6249761776 0.0000000000  Biso 1.0 Ni
Sn9 1.0000000000 0.0000000000 0.0000000000 0.0000000000  Biso 1.0 Sn
Sn10 1.0000000000 0.5000000000 0.5000000000 0.0000000000  Biso 1.0 Sn
