# AFLOW.org Repositories
# Hf2Ni2Sn1   [TET,TET,tP20] (STD_PRIM doi
data_Hf2Ni2Sn1
_pd_phase_name Hf2Ni2Sn1
_cell_length_a  7.0610222284
_cell_length_b  7.0610222284
_cell_length_c  6.7717334874
_cell_angle_alpha  90.0000000000
_cell_angle_beta  90.0000000000
_cell_angle_gamma  90.0000000000
_symmetry_space_group_name_H-M  'P1'
_symmetry_Int_Tables_Number  1
loop_
_symmetry_equiv_pos_site_id
_symmetry_equiv_pos_as_xyz
  1  x,y,z
loop_
 _atom_site_label
 _atom_site_occupancy
 _atom_site_fract_x
 _atom_site_fract_y
 _atom_site_fract_z
 _atom_site_thermal_displace_type
 _atom_site_B_iso_or_equiv
 _atom_site_type_symbol
Hf1 1.0000000000 0.1783698649 0.1783698649 0.0000000000  Biso 1.0 Hf
Hf2 1.0000000000 0.8216301351 0.8216301351 0.0000000000  Biso 1.0 Hf
Hf3 1.0000000000 0.3216301351 0.6783698649 0.5000000000  Biso 1.0 Hf
Hf4 1.0000000000 0.6783698649 0.3216301351 0.5000000000  Biso 1.0 Hf
Hf5 1.0000000000 0.3478783164 0.6521216836 0.0000000000  Biso 1.0 Hf
Hf6 1.0000000000 0.6521216836 0.3478783164 0.0000000000  Biso 1.0 Hf
Hf7 1.0000000000 0.8478783164 0.8478783164 0.5000000000  Biso 1.0 Hf
Hf8 1.0000000000 0.1521216836 0.1521216836 0.5000000000  Biso 1.0 Hf
Ni9 1.0000000000 0.3742716353 0.3742716353 0.2833468584  Biso 1.0 Ni
Ni10 1.0000000000 0.6257283647 0.6257283647 0.2833468584  Biso 1.0 Ni
Ni11 1.0000000000 0.1257283647 0.8742716353 0.7833468584  Biso 1.0 Ni
Ni12 1.0000000000 0.8742716353 0.1257283647 0.7833468584  Biso 1.0 Ni
Ni13 1.0000000000 0.1257283647 0.8742716353 0.2166531416  Biso 1.0 Ni
Ni14 1.0000000000 0.8742716353 0.1257283647 0.2166531416  Biso 1.0 Ni
Ni15 1.0000000000 0.3742716353 0.3742716353 0.7166531416  Biso 1.0 Ni
Ni16 1.0000000000 0.6257283647 0.6257283647 0.7166531416  Biso 1.0 Ni
Sn17 1.0000000000 0.0000000000 0.5000000000 0.2500000000  Biso 1.0 Sn
Sn18 1.0000000000 0.0000000000 0.5000000000 0.7500000000  Biso 1.0 Sn
Sn19 1.0000000000 0.5000000000 0.0000000000 0.2500000000  Biso 1.0 Sn
Sn20 1.0000000000 0.5000000000 0.0000000000 0.7500000000  Biso 1.0 Sn
