# AFLOW.org Repositories
# Hg1Zr3   [CUB,CUB,cP8] (STD_PRIM doi:10.
data_Hg1Zr3
_pd_phase_name Hg1Zr3
_cell_length_a  5.5997925730
_cell_length_b  5.5997925730
_cell_length_c  5.5997925730
_cell_angle_alpha  90.0000000000
_cell_angle_beta  90.0000000000
_cell_angle_gamma  90.0000000000
_symmetry_space_group_name_H-M  'P1'
_symmetry_Int_Tables_Number  1
loop_
_symmetry_equiv_pos_site_id
_symmetry_equiv_pos_as_xyz
  1  x,y,z
loop_
 _atom_site_label
 _atom_site_occupancy
 _atom_site_fract_x
 _atom_site_fract_y
 _atom_site_fract_z
 _atom_site_thermal_displace_type
 _atom_site_B_iso_or_equiv
 _atom_site_type_symbol
Hg1 1.0000000000 0.0000000000 0.0000000000 0.0000000000  Biso 1.0 Hg
Hg2 1.0000000000 0.5000000000 0.5000000000 0.5000000000  Biso 1.0 Hg
Zr3 1.0000000000 0.7500000000 0.0000000000 0.5000000000  Biso 1.0 Zr
Zr4 1.0000000000 0.2500000000 0.0000000000 0.5000000000  Biso 1.0 Zr
Zr5 1.0000000000 0.5000000000 0.7500000000 0.0000000000  Biso 1.0 Zr
Zr6 1.0000000000 0.5000000000 0.2500000000 0.0000000000  Biso 1.0 Zr
Zr7 1.0000000000 0.0000000000 0.5000000000 0.2500000000  Biso 1.0 Zr
Zr8 1.0000000000 0.0000000000 0.5000000000 0.7500000000  Biso 1.0 Zr
