# AFLOW.org Repositories
# Hg2K1   [ORCI,ORCI,oI12] (STD_PRIM doi:1
data_Hg2K1
_pd_phase_name Hg2K1
_cell_length_a  6.7403064397
_cell_length_b  6.7403064397
_cell_length_c  6.7403064397
_cell_angle_alpha  133.1848813922
_cell_angle_beta  105.2047535260
_cell_angle_gamma  93.0596752827
_symmetry_space_group_name_H-M  'P1'
_symmetry_Int_Tables_Number  1
loop_
_symmetry_equiv_pos_site_id
_symmetry_equiv_pos_as_xyz
  1  x,y,z
loop_
 _atom_site_label
 _atom_site_occupancy
 _atom_site_fract_x
 _atom_site_fract_y
 _atom_site_fract_z
 _atom_site_thermal_displace_type
 _atom_site_B_iso_or_equiv
 _atom_site_type_symbol
Hg1 1.0000000000 0.1080340526 0.1633104540 0.4447235986  Biso 1.0 Hg
Hg2 1.0000000000 0.7185868554 0.1633104540 0.0552764014  Biso 1.0 Hg
Hg3 1.0000000000 0.8919659474 0.8366895460 0.5552764014  Biso 1.0 Hg
Hg4 1.0000000000 0.2814131446 0.8366895460 0.9447235986  Biso 1.0 Hg
K5 1.0000000000 0.2992969077 0.5492969077 0.2500000000  Biso 1.0 K
K6 1.0000000000 0.7007030923 0.4507030923 0.7500000000  Biso 1.0 K
