# AFLOW.org Repositories
# Hg5Pd2   [TET,TET,tP14] (STD_PRIM doi:10
data_Hg5Pd2
_pd_phase_name Hg5Pd2
_cell_length_a  9.8573196412
_cell_length_b  9.8573196412
_cell_length_c  3.0334091722
_cell_angle_alpha  90.0000000000
_cell_angle_beta  90.0000000000
_cell_angle_gamma  90.0000000000
_symmetry_space_group_name_H-M  'P1'
_symmetry_Int_Tables_Number  1
loop_
_symmetry_equiv_pos_site_id
_symmetry_equiv_pos_as_xyz
  1  x,y,z
loop_
 _atom_site_label
 _atom_site_occupancy
 _atom_site_fract_x
 _atom_site_fract_y
 _atom_site_fract_z
 _atom_site_thermal_displace_type
 _atom_site_B_iso_or_equiv
 _atom_site_type_symbol
Hg1 1.0000000000 0.0000000000 0.5000000000 0.0000000000  Biso 1.0 Hg
Hg2 1.0000000000 0.5000000000 0.0000000000 0.0000000000  Biso 1.0 Hg
Hg3 1.0000000000 0.0643693686 0.2040248869 0.0000000000  Biso 1.0 Hg
Hg4 1.0000000000 0.9356306314 0.7959751131 0.0000000000  Biso 1.0 Hg
Hg5 1.0000000000 0.7959751131 0.0643693686 0.0000000000  Biso 1.0 Hg
Hg6 1.0000000000 0.2040248869 0.9356306314 0.0000000000  Biso 1.0 Hg
Hg7 1.0000000000 0.4356306314 0.7040248869 0.0000000000  Biso 1.0 Hg
Hg8 1.0000000000 0.5643693686 0.2959751131 0.0000000000  Biso 1.0 Hg
Hg9 1.0000000000 0.7040248869 0.5643693686 0.0000000000  Biso 1.0 Hg
Hg10 1.0000000000 0.2959751131 0.4356306314 0.0000000000  Biso 1.0 Hg
Pd11 1.0000000000 0.1799043929 0.6799043929 0.5000000000  Biso 1.0 Pd
Pd12 1.0000000000 0.8200956071 0.3200956071 0.5000000000  Biso 1.0 Pd
Pd13 1.0000000000 0.3200956071 0.1799043929 0.5000000000  Biso 1.0 Pd
Pd14 1.0000000000 0.6799043929 0.8200956071 0.5000000000  Biso 1.0 Pd
