# AFLOW.org Repositories
# Ho1In1Pd1   [HEX,HEX,hP9] (STD_PRIM doi:
data_Ho1In1Pd1
_pd_phase_name Ho1In1Pd1
_cell_length_a  7.6629343893
_cell_length_b  7.6629343893
_cell_length_c  3.8369946714
_cell_angle_alpha  90.0000000000
_cell_angle_beta  90.0000000000
_cell_angle_gamma  120.0000000000
_symmetry_space_group_name_H-M  'P1'
_symmetry_Int_Tables_Number  1
loop_
_symmetry_equiv_pos_site_id
_symmetry_equiv_pos_as_xyz
  1  x,y,z
loop_
 _atom_site_label
 _atom_site_occupancy
 _atom_site_fract_x
 _atom_site_fract_y
 _atom_site_fract_z
 _atom_site_thermal_displace_type
 _atom_site_B_iso_or_equiv
 _atom_site_type_symbol
Ho1 1.0000000000 0.4077039987 0.4077039987 0.0000000000  Biso 1.0 Ho
Ho2 1.0000000000 0.5922960689 0.0000000000 0.0000000000  Biso 1.0 Ho
Ho3 1.0000000000 0.0000000000 0.5922921444 0.0000000000  Biso 1.0 Ho
In4 1.0000000000 0.7405908599 0.7405908599 0.5000000000  Biso 1.0 In
In5 1.0000000000 0.2594166980 0.0000000000 0.5000000000  Biso 1.0 In
In6 1.0000000000 0.0000000000 0.2594203072 0.5000000000  Biso 1.0 In
Pd7 1.0000000000 0.0000000000 0.0000000000 0.0000000000  Biso 1.0 Pd
Pd8 1.0000000000 0.3333467896 0.6666731073 0.5000000000  Biso 1.0 Pd
Pd9 1.0000000000 0.6666532104 0.3333263176 0.5000000000  Biso 1.0 Pd
