# AFLOW.org Repositories
# Ho1Mg1Sn1   [BCT,BCT2,tI12] (STD_PRIM do
data_Ho1Mg1Sn1
_pd_phase_name Ho1Mg1Sn1
_cell_length_a  8.5620671313
_cell_length_b  8.5620671313
_cell_length_c  8.5620671313
_cell_angle_alpha  150.2003841194
_cell_angle_beta  150.2003841194
_cell_angle_gamma  42.6473403737
_symmetry_space_group_name_H-M  'P1'
_symmetry_Int_Tables_Number  1
loop_
_symmetry_equiv_pos_site_id
_symmetry_equiv_pos_as_xyz
  1  x,y,z
loop_
 _atom_site_label
 _atom_site_occupancy
 _atom_site_fract_x
 _atom_site_fract_y
 _atom_site_fract_z
 _atom_site_thermal_displace_type
 _atom_site_B_iso_or_equiv
 _atom_site_type_symbol
Ho1 1.0000000000 0.6668776406 0.6668776406 0.0000000000  Biso 1.0 Ho
Ho2 1.0000000000 0.3331223594 0.3331223594 0.0000000000  Biso 1.0 Ho
Mg3 1.0000000000 0.5000000000 0.0000000000 0.5000000000  Biso 1.0 Mg
Mg4 1.0000000000 0.0000000000 0.5000000000 0.5000000000  Biso 1.0 Mg
Sn5 1.0000000000 0.8629264584 0.8629264584 0.0000000000  Biso 1.0 Sn
Sn6 1.0000000000 0.1370735416 0.1370735416 0.0000000000  Biso 1.0 Sn
