# AFLOW.org Repositories
# Ho2Rh3Sn5   [ORCC,ORCC,oS40] (STD_PRIM d
data_Ho2Rh3Sn5
_pd_phase_name Ho2Rh3Sn5
_cell_length_a  13.5916652599
_cell_length_b  13.5916652599
_cell_length_c  7.2672728208
_cell_angle_alpha  90.0000000000
_cell_angle_beta  90.0000000000
_cell_angle_gamma  161.1738321793
_symmetry_space_group_name_H-M  'P1'
_symmetry_Int_Tables_Number  1
loop_
_symmetry_equiv_pos_site_id
_symmetry_equiv_pos_as_xyz
  1  x,y,z
loop_
 _atom_site_label
 _atom_site_occupancy
 _atom_site_fract_x
 _atom_site_fract_y
 _atom_site_fract_z
 _atom_site_thermal_displace_type
 _atom_site_B_iso_or_equiv
 _atom_site_type_symbol
Ho1 1.0000000000 0.8290508872 0.1709491128 0.2402484792  Biso 1.0 Ho
Ho2 1.0000000000 0.1709491128 0.8290508872 0.7402484792  Biso 1.0 Ho
Ho3 1.0000000000 0.5251252686 0.4748747314 0.2639707947  Biso 1.0 Ho
Ho4 1.0000000000 0.4748747314 0.5251252686 0.7639707947  Biso 1.0 Ho
Rh5 1.0000000000 0.9506092084 0.0493907916 0.4855186851  Biso 1.0 Rh
Rh6 1.0000000000 0.0493907916 0.9506092084 0.9855186851  Biso 1.0 Rh
Rh7 1.0000000000 0.2216550135 0.7783449865 0.2361104141  Biso 1.0 Rh
Rh8 1.0000000000 0.7783449865 0.2216550135 0.7361104141  Biso 1.0 Rh
Rh9 1.0000000000 0.6053475558 0.3946524442 0.5158853068  Biso 1.0 Rh
Rh10 1.0000000000 0.3946524442 0.6053475558 0.0158853068  Biso 1.0 Rh
Sn11 1.0000000000 0.1199940600 0.8800059400 0.2655391992  Biso 1.0 Sn
Sn12 1.0000000000 0.8800059400 0.1199940600 0.7655391992  Biso 1.0 Sn
Sn13 1.0000000000 0.2954744005 0.7045255995 0.9534791588  Biso 1.0 Sn
Sn14 1.0000000000 0.7045255995 0.2954744005 0.4534791588  Biso 1.0 Sn
Sn15 1.0000000000 0.4036988265 0.5963011735 0.3893664853  Biso 1.0 Sn
Sn16 1.0000000000 0.5963011735 0.4036988265 0.8893664853  Biso 1.0 Sn
Sn17 1.0000000000 0.0468147833 0.9531852167 0.6017353017  Biso 1.0 Sn
Sn18 1.0000000000 0.9531852167 0.0468147833 0.1017353017  Biso 1.0 Sn
Sn19 1.0000000000 0.7094667924 0.2905332076 0.0201461751  Biso 1.0 Sn
Sn20 1.0000000000 0.2905332076 0.7094667924 0.5201461751  Biso 1.0 Sn
