# AFLOW.org Repositories
# Ho2S3   [ORC,ORC,oP20] (STD_PRIM doi:10.
data_Ho2S3
_pd_phase_name Ho2S3
_cell_length_a  3.8532001120
_cell_length_b  10.4406729774
_cell_length_c  10.6101082429
_cell_angle_alpha  90.0000000000
_cell_angle_beta  90.0000000000
_cell_angle_gamma  90.0000000000
_symmetry_space_group_name_H-M  'P1'
_symmetry_Int_Tables_Number  1
loop_
_symmetry_equiv_pos_site_id
_symmetry_equiv_pos_as_xyz
  1  x,y,z
loop_
 _atom_site_label
 _atom_site_occupancy
 _atom_site_fract_x
 _atom_site_fract_y
 _atom_site_fract_z
 _atom_site_thermal_displace_type
 _atom_site_B_iso_or_equiv
 _atom_site_type_symbol
Ho1 1.0000000000 0.7500000000 0.6869405941 0.9898771262  Biso 1.0 Ho
Ho2 1.0000000000 0.2500000000 0.1869405941 0.5101228738  Biso 1.0 Ho
Ho3 1.0000000000 0.2500000000 0.3130594059 0.0101228738  Biso 1.0 Ho
Ho4 1.0000000000 0.7500000000 0.8130594059 0.4898771262  Biso 1.0 Ho
Ho5 1.0000000000 0.7500000000 0.4959610324 0.3078186950  Biso 1.0 Ho
Ho6 1.0000000000 0.2500000000 0.9959610324 0.1921813050  Biso 1.0 Ho
Ho7 1.0000000000 0.2500000000 0.5040389676 0.6921813050  Biso 1.0 Ho
Ho8 1.0000000000 0.7500000000 0.0040389676 0.8078186950  Biso 1.0 Ho
S9 1.0000000000 0.7500000000 0.1265470422 0.0459170015  Biso 1.0 S
S10 1.0000000000 0.2500000000 0.6265470422 0.4540829985  Biso 1.0 S
S11 1.0000000000 0.2500000000 0.8734529578 0.9540829985  Biso 1.0 S
S12 1.0000000000 0.7500000000 0.3734529578 0.5459170015  Biso 1.0 S
S13 1.0000000000 0.7500000000 0.4448200411 0.8807769094  Biso 1.0 S
S14 1.0000000000 0.2500000000 0.9448200411 0.6192230906  Biso 1.0 S
S15 1.0000000000 0.2500000000 0.5551799589 0.1192230906  Biso 1.0 S
S16 1.0000000000 0.7500000000 0.0551799589 0.3807769094  Biso 1.0 S
S17 1.0000000000 0.7500000000 0.8038782459 0.2274023199  Biso 1.0 S
S18 1.0000000000 0.2500000000 0.3038782459 0.2725976801  Biso 1.0 S
S19 1.0000000000 0.2500000000 0.1961217541 0.7725976801  Biso 1.0 S
S20 1.0000000000 0.7500000000 0.6961217541 0.7274023199  Biso 1.0 S
