# AFLOW.org Repositories
# Ho5Ni2Sb1   [BCT,BCT2,tI32] (STD_PRIM do
data_Ho5Ni2Sb1
_pd_phase_name Ho5Ni2Sb1
_cell_length_a  8.5244466830
_cell_length_b  8.5244466830
_cell_length_c  8.5244466830
_cell_angle_alpha  127.0008916508
_cell_angle_beta  127.0008916508
_cell_angle_gamma  78.2492303085
_symmetry_space_group_name_H-M  'P1'
_symmetry_Int_Tables_Number  1
loop_
_symmetry_equiv_pos_site_id
_symmetry_equiv_pos_as_xyz
  1  x,y,z
loop_
 _atom_site_label
 _atom_site_occupancy
 _atom_site_fract_x
 _atom_site_fract_y
 _atom_site_fract_z
 _atom_site_thermal_displace_type
 _atom_site_B_iso_or_equiv
 _atom_site_type_symbol
Ho1 1.0000000000 0.0000000000 0.0000000000 0.0000000000  Biso 1.0 Ho
Ho2 1.0000000000 0.5000000000 0.5000000000 0.0000000000  Biso 1.0 Ho
Ho3 1.0000000000 0.5183419351 0.7066284173 0.5000000000  Biso 1.0 Ho
Ho4 1.0000000000 0.2066284173 0.0183419351 0.5000000000  Biso 1.0 Ho
Ho5 1.0000000000 0.0183419351 0.5183419351 0.8117135177  Biso 1.0 Ho
Ho6 1.0000000000 0.7066284173 0.2066284173 0.1882864823  Biso 1.0 Ho
Ho7 1.0000000000 0.2933715827 0.7933715827 0.8117135177  Biso 1.0 Ho
Ho8 1.0000000000 0.9816580649 0.4816580649 0.1882864823  Biso 1.0 Ho
Ho9 1.0000000000 0.7933715827 0.9816580649 0.5000000000  Biso 1.0 Ho
Ho10 1.0000000000 0.4816580649 0.2933715827 0.5000000000  Biso 1.0 Ho
Ni11 1.0000000000 0.8688932200 0.6311067800 0.5000000000  Biso 1.0 Ni
Ni12 1.0000000000 0.1311067800 0.3688932200 0.5000000000  Biso 1.0 Ni
Ni13 1.0000000000 0.3688932200 0.8688932200 0.2377864399  Biso 1.0 Ni
Ni14 1.0000000000 0.6311067800 0.1311067800 0.7622135601  Biso 1.0 Ni
Sb15 1.0000000000 0.7500000000 0.7500000000 0.0000000000  Biso 1.0 Sb
Sb16 1.0000000000 0.2500000000 0.2500000000 0.0000000000  Biso 1.0 Sb
