# AFLOW.org Repositories
# Ho5Sb3   [HEX,HEX,hP16] (STD_PRIM doi:10
data_Ho5Sb3
_pd_phase_name Ho5Sb3
_cell_length_a  8.9445397358
_cell_length_b  8.9445397358
_cell_length_c  6.2732815234
_cell_angle_alpha  90.0000000000
_cell_angle_beta  90.0000000000
_cell_angle_gamma  120.0000000000
_symmetry_space_group_name_H-M  'P1'
_symmetry_Int_Tables_Number  1
loop_
_symmetry_equiv_pos_site_id
_symmetry_equiv_pos_as_xyz
  1  x,y,z
loop_
 _atom_site_label
 _atom_site_occupancy
 _atom_site_fract_x
 _atom_site_fract_y
 _atom_site_fract_z
 _atom_site_thermal_displace_type
 _atom_site_B_iso_or_equiv
 _atom_site_type_symbol
Ho1 1.0000000000 0.0000000000 0.7534074534 0.2500000000  Biso 1.0 Ho
Ho2 1.0000000000 0.2465925466 0.2465925466 0.2500000000  Biso 1.0 Ho
Ho3 1.0000000000 0.7533898091 0.0000000000 0.2500000000  Biso 1.0 Ho
Ho4 1.0000000000 0.0000000000 0.2465925466 0.7500000000  Biso 1.0 Ho
Ho5 1.0000000000 0.7534074534 0.7534074534 0.7500000000  Biso 1.0 Ho
Ho6 1.0000000000 0.2466101909 0.0000000000 0.7500000000  Biso 1.0 Ho
Ho7 1.0000000000 0.6666609733 0.3333219466 0.0000000000  Biso 1.0 Ho
Ho8 1.0000000000 0.3333390267 0.6666780534 0.5000000000  Biso 1.0 Ho
Ho9 1.0000000000 0.3333390267 0.6666780534 0.0000000000  Biso 1.0 Ho
Ho10 1.0000000000 0.6666609733 0.3333219466 0.5000000000  Biso 1.0 Ho
Sb11 1.0000000000 0.0000000000 0.3892987666 0.2500000000  Biso 1.0 Sb
Sb12 1.0000000000 0.6107012334 0.6107012334 0.2500000000  Biso 1.0 Sb
Sb13 1.0000000000 0.3893088749 0.0000000000 0.2500000000  Biso 1.0 Sb
Sb14 1.0000000000 0.0000000000 0.6107012334 0.7500000000  Biso 1.0 Sb
Sb15 1.0000000000 0.3892987666 0.3892987666 0.7500000000  Biso 1.0 Sb
Sb16 1.0000000000 0.6106911251 0.0000000000 0.7500000000  Biso 1.0 Sb
