# AFLOW.org Repositories
# In1Ir1Tb4   [FCC,FCC,cF96] (STD_PRIM doi
data_In1Ir1Tb4
_pd_phase_name In1Ir1Tb4
_cell_length_a  9.6807109689
_cell_length_b  9.6807109689
_cell_length_c  9.6807109689
_cell_angle_alpha  60.0000000000
_cell_angle_beta  60.0000000000
_cell_angle_gamma  60.0000000000
_symmetry_space_group_name_H-M  'P1'
_symmetry_Int_Tables_Number  1
loop_
_symmetry_equiv_pos_site_id
_symmetry_equiv_pos_as_xyz
  1  x,y,z
loop_
 _atom_site_label
 _atom_site_occupancy
 _atom_site_fract_x
 _atom_site_fract_y
 _atom_site_fract_z
 _atom_site_thermal_displace_type
 _atom_site_B_iso_or_equiv
 _atom_site_type_symbol
In1 1.0000000000 0.2530204051 0.5823265316 0.5823265316  Biso 1.0 In
In2 1.0000000000 0.5823265316 0.5823265316 0.5823265316  Biso 1.0 In
In3 1.0000000000 0.5823265316 0.2530204051 0.5823265316  Biso 1.0 In
In4 1.0000000000 0.5823265316 0.5823265316 0.2530204051  Biso 1.0 In
Ir5 1.0000000000 0.5758971369 0.1413676210 0.1413676210  Biso 1.0 Ir
Ir6 1.0000000000 0.1413676210 0.1413676210 0.1413676210  Biso 1.0 Ir
Ir7 1.0000000000 0.1413676210 0.5758971369 0.1413676210  Biso 1.0 Ir
Ir8 1.0000000000 0.1413676210 0.1413676210 0.5758971369  Biso 1.0 Ir
Tb9 1.0000000000 0.9389288581 0.5610711419 0.9389288581  Biso 1.0 Tb
Tb10 1.0000000000 0.5610711419 0.9389288581 0.5610711419  Biso 1.0 Tb
Tb11 1.0000000000 0.9389288581 0.9389288581 0.5610711419  Biso 1.0 Tb
Tb12 1.0000000000 0.5610711419 0.5610711419 0.9389288581  Biso 1.0 Tb
Tb13 1.0000000000 0.9389288581 0.5610711419 0.5610711419  Biso 1.0 Tb
Tb14 1.0000000000 0.5610711419 0.9389288581 0.9389288581  Biso 1.0 Tb
Tb15 1.0000000000 0.8097279700 0.1902720300 0.8097279700  Biso 1.0 Tb
Tb16 1.0000000000 0.1902720300 0.8097279700 0.1902720300  Biso 1.0 Tb
Tb17 1.0000000000 0.8097279700 0.8097279700 0.1902720300  Biso 1.0 Tb
Tb18 1.0000000000 0.1902720300 0.1902720300 0.8097279700  Biso 1.0 Tb
Tb19 1.0000000000 0.8097279700 0.1902720300 0.1902720300  Biso 1.0 Tb
Tb20 1.0000000000 0.1902720300 0.8097279700 0.8097279700  Biso 1.0 Tb
Tb21 1.0000000000 0.9551300209 0.3482899930 0.3482899930  Biso 1.0 Tb
Tb22 1.0000000000 0.3482899930 0.3482899930 0.3482899930  Biso 1.0 Tb
Tb23 1.0000000000 0.3482899930 0.9551300209 0.3482899930  Biso 1.0 Tb
Tb24 1.0000000000 0.3482899930 0.3482899930 0.9551300209  Biso 1.0 Tb
