# AFLOW.org Repositories
# In1Ir1Tb1   [HEX,HEX,hP9] (STD_PRIM doi:
data_In1Ir1Tb1
_pd_phase_name In1Ir1Tb1
_cell_length_a  7.4601385621
_cell_length_b  7.4601385621
_cell_length_c  3.9784603669
_cell_angle_alpha  90.0000000000
_cell_angle_beta  90.0000000000
_cell_angle_gamma  120.0000000000
_symmetry_space_group_name_H-M  'P1'
_symmetry_Int_Tables_Number  1
loop_
_symmetry_equiv_pos_site_id
_symmetry_equiv_pos_as_xyz
  1  x,y,z
loop_
 _atom_site_label
 _atom_site_occupancy
 _atom_site_fract_x
 _atom_site_fract_y
 _atom_site_fract_z
 _atom_site_thermal_displace_type
 _atom_site_B_iso_or_equiv
 _atom_site_type_symbol
In1 1.0000000000 0.0000000000 0.7449048480 0.5000000000  Biso 1.0 In
In2 1.0000000000 0.2550951520 0.2550951520 0.5000000000  Biso 1.0 In
In3 1.0000000000 0.7448943535 0.0000000000 0.5000000000  Biso 1.0 In
Ir4 1.0000000000 0.6666751150 0.3333435796 0.5000000000  Biso 1.0 Ir
Ir5 1.0000000000 0.3333315354 0.6666564204 0.5000000000  Biso 1.0 Ir
Ir6 1.0000000000 0.0000000000 0.0000000000 0.0000000000  Biso 1.0 Ir
Tb7 1.0000000000 0.0000000000 0.4062559494 0.0000000000  Biso 1.0 Tb
Tb8 1.0000000000 0.5937440506 0.5937440506 0.0000000000  Biso 1.0 Tb
Tb9 1.0000000000 0.4062579164 0.0000000000 0.0000000000  Biso 1.0 Tb
