# AFLOW.org Repositories
# In1La2Rh2   [TET,TET,tP10] (STD_PRIM doi
data_In1La2Rh2
_pd_phase_name In1La2Rh2
_cell_length_a  7.7034806834
_cell_length_b  7.7034806834
_cell_length_c  4.0301436428
_cell_angle_alpha  90.0000000000
_cell_angle_beta  90.0000000000
_cell_angle_gamma  90.0000000000
_symmetry_space_group_name_H-M  'P1'
_symmetry_Int_Tables_Number  1
loop_
_symmetry_equiv_pos_site_id
_symmetry_equiv_pos_as_xyz
  1  x,y,z
loop_
 _atom_site_label
 _atom_site_occupancy
 _atom_site_fract_x
 _atom_site_fract_y
 _atom_site_fract_z
 _atom_site_thermal_displace_type
 _atom_site_B_iso_or_equiv
 _atom_site_type_symbol
In1 1.0000000000 0.0000000000 0.0000000000 0.0000000000  Biso 1.0 In
In2 1.0000000000 0.5000000000 0.5000000000 0.0000000000  Biso 1.0 In
La3 1.0000000000 0.1711683827 0.6711683827 0.5000000000  Biso 1.0 La
La4 1.0000000000 0.8288316173 0.3288316173 0.5000000000  Biso 1.0 La
La5 1.0000000000 0.3288316173 0.1711683827 0.5000000000  Biso 1.0 La
La6 1.0000000000 0.6711683827 0.8288316173 0.5000000000  Biso 1.0 La
Rh7 1.0000000000 0.3675463385 0.8675463385 0.0000000000  Biso 1.0 Rh
Rh8 1.0000000000 0.6324536615 0.1324536615 0.0000000000  Biso 1.0 Rh
Rh9 1.0000000000 0.1324536615 0.3675463385 0.0000000000  Biso 1.0 Rh
Rh10 1.0000000000 0.8675463385 0.6324536615 0.0000000000  Biso 1.0 Rh
