# AFLOW.org Repositories
# In1Ni2Tb2   [ORCC,ORCC,oS10] (STD_PRIM d
data_In1Ni2Tb2
_pd_phase_name In1Ni2Tb2
_cell_length_a  7.4333197426
_cell_length_b  7.4333197426
_cell_length_c  3.6294790394
_cell_angle_alpha  90.0000000000
_cell_angle_beta  90.0000000000
_cell_angle_gamma  149.3708406749
_symmetry_space_group_name_H-M  'P1'
_symmetry_Int_Tables_Number  1
loop_
_symmetry_equiv_pos_site_id
_symmetry_equiv_pos_as_xyz
  1  x,y,z
loop_
 _atom_site_label
 _atom_site_occupancy
 _atom_site_fract_x
 _atom_site_fract_y
 _atom_site_fract_z
 _atom_site_thermal_displace_type
 _atom_site_B_iso_or_equiv
 _atom_site_type_symbol
In1 1.0000000000 0.0000000000 0.0000000000 0.0000000000  Biso 1.0 In
Ni2 1.0000000000 0.8023026488 0.1976973512 0.0000000000  Biso 1.0 Ni
Ni3 1.0000000000 0.1976973512 0.8023026488 0.0000000000  Biso 1.0 Ni
Tb4 1.0000000000 0.6390900359 0.3609099641 0.5000000000  Biso 1.0 Tb
Tb5 1.0000000000 0.3609099641 0.6390900359 0.5000000000  Biso 1.0 Tb
