# AFLOW.org Repositories
# In1N1Ti2   [HEX,HEX,hP8] (STD_PRIM doi:1
data_In1N1Ti2
_pd_phase_name In1N1Ti2
_cell_length_a  3.1110144589
_cell_length_b  3.1110144589
_cell_length_c  14.3065056093
_cell_angle_alpha  90.0000000000
_cell_angle_beta  90.0000000000
_cell_angle_gamma  120.0000000000
_symmetry_space_group_name_H-M  'P1'
_symmetry_Int_Tables_Number  1
loop_
_symmetry_equiv_pos_site_id
_symmetry_equiv_pos_as_xyz
  1  x,y,z
loop_
 _atom_site_label
 _atom_site_occupancy
 _atom_site_fract_x
 _atom_site_fract_y
 _atom_site_fract_z
 _atom_site_thermal_displace_type
 _atom_site_B_iso_or_equiv
 _atom_site_type_symbol
In1 1.0000000000 0.3333703541 0.6666851771 0.7500000000  Biso 1.0 In
In2 1.0000000000 0.6666296459 0.3333148229 0.2500000000  Biso 1.0 In
N3 1.0000000000 0.0000000000 0.0000000000 0.0000000000  Biso 1.0 N
N4 1.0000000000 0.0000000000 0.0000000000 0.5000000000  Biso 1.0 N
Ti5 1.0000000000 0.3333476691 0.6666738345 0.0814302817  Biso 1.0 Ti
Ti6 1.0000000000 0.6666523309 0.3333261655 0.5814302817  Biso 1.0 Ti
Ti7 1.0000000000 0.6666523309 0.3333261655 0.9185697183  Biso 1.0 Ti
Ti8 1.0000000000 0.3333476691 0.6666738345 0.4185697183  Biso 1.0 Ti
