# AFLOW.org Repositories
# In1Na5O4   [ORC,ORC,oP20] (STD_PRIM doi:
data_In1Na5O4
_pd_phase_name In1Na5O4
_cell_length_a  5.5148075552
_cell_length_b  7.4295340131
_cell_length_c  7.6704102432
_cell_angle_alpha  90.0000000000
_cell_angle_beta  90.0000000000
_cell_angle_gamma  90.0000000000
_symmetry_space_group_name_H-M  'P1'
_symmetry_Int_Tables_Number  1
loop_
_symmetry_equiv_pos_site_id
_symmetry_equiv_pos_as_xyz
  1  x,y,z
loop_
 _atom_site_label
 _atom_site_occupancy
 _atom_site_fract_x
 _atom_site_fract_y
 _atom_site_fract_z
 _atom_site_thermal_displace_type
 _atom_site_B_iso_or_equiv
 _atom_site_type_symbol
In1 1.0000000000 0.2210602726 0.7500000000 0.2500000000  Biso 1.0 In
In2 1.0000000000 0.7789397274 0.2500000000 0.7500000000  Biso 1.0 In
Na3 1.0000000000 0.2555268728 0.4891786311 0.5562185557  Biso 1.0 Na
Na4 1.0000000000 0.2555268728 0.0108213689 0.9437814443  Biso 1.0 Na
Na5 1.0000000000 0.7444731272 0.9891786311 0.4437814443  Biso 1.0 Na
Na6 1.0000000000 0.7444731272 0.5108213689 0.0562185557  Biso 1.0 Na
Na7 1.0000000000 0.7444731272 0.5108213689 0.4437814443  Biso 1.0 Na
Na8 1.0000000000 0.7444731272 0.9891786311 0.0562185557  Biso 1.0 Na
Na9 1.0000000000 0.2555268728 0.0108213689 0.5562185557  Biso 1.0 Na
Na10 1.0000000000 0.2555268728 0.4891786311 0.9437814443  Biso 1.0 Na
Na11 1.0000000000 0.1963803175 0.2500000000 0.2500000000  Biso 1.0 Na
Na12 1.0000000000 0.8036196825 0.7500000000 0.7500000000  Biso 1.0 Na
O13 1.0000000000 0.4220314378 0.9875386289 0.2500000000  Biso 1.0 O
O14 1.0000000000 0.4220314378 0.5124613711 0.2500000000  Biso 1.0 O
O15 1.0000000000 0.5779685622 0.4875386289 0.7500000000  Biso 1.0 O
O16 1.0000000000 0.5779685622 0.0124613711 0.7500000000  Biso 1.0 O
O17 1.0000000000 0.0180313189 0.7500000000 0.0177693822  Biso 1.0 O
O18 1.0000000000 0.0180313189 0.7500000000 0.4822306178  Biso 1.0 O
O19 1.0000000000 0.9819686811 0.2500000000 0.9822306178  Biso 1.0 O
O20 1.0000000000 0.9819686811 0.2500000000 0.5177693822  Biso 1.0 O
