# AFLOW.org Repositories
# In1Tb2   [HEX,HEX,hP6] (STD_PRIM doi:10.
data_In1Tb2
_pd_phase_name In1Tb2
_cell_length_a  5.4162005769
_cell_length_b  5.4162005769
_cell_length_c  6.7477504322
_cell_angle_alpha  90.0000000000
_cell_angle_beta  90.0000000000
_cell_angle_gamma  120.0000000000
_symmetry_space_group_name_H-M  'P1'
_symmetry_Int_Tables_Number  1
loop_
_symmetry_equiv_pos_site_id
_symmetry_equiv_pos_as_xyz
  1  x,y,z
loop_
 _atom_site_label
 _atom_site_occupancy
 _atom_site_fract_x
 _atom_site_fract_y
 _atom_site_fract_z
 _atom_site_thermal_displace_type
 _atom_site_B_iso_or_equiv
 _atom_site_type_symbol
In1 1.0000000000 0.3333102080 0.6666897920 0.2500000000  Biso 1.0 In
In2 1.0000000000 0.6666897920 0.3333102080 0.7500000000  Biso 1.0 In
Tb3 1.0000000000 0.0000000000 0.0000000000 0.0000000000  Biso 1.0 Tb
Tb4 1.0000000000 0.0000000000 0.0000000000 0.5000000000  Biso 1.0 Tb
Tb5 1.0000000000 0.3333102628 0.6666897372 0.7500000000  Biso 1.0 Tb
Tb6 1.0000000000 0.6666897372 0.3333102628 0.2500000000  Biso 1.0 Tb
