# AFLOW.org Repositories
# In2Pd1Yb1   [ORCC,ORCC,oS16] (STD_PRIM d
data_In2Pd1Yb1
_pd_phase_name In2Pd1Yb1
_cell_length_a  5.6552899753
_cell_length_b  5.6552899753
_cell_length_c  7.9394718973
_cell_angle_alpha  90.0000000000
_cell_angle_beta  90.0000000000
_cell_angle_gamma  132.9943393181
_symmetry_space_group_name_H-M  'P1'
_symmetry_Int_Tables_Number  1
loop_
_symmetry_equiv_pos_site_id
_symmetry_equiv_pos_as_xyz
  1  x,y,z
loop_
 _atom_site_label
 _atom_site_occupancy
 _atom_site_fract_x
 _atom_site_fract_y
 _atom_site_fract_z
 _atom_site_thermal_displace_type
 _atom_site_B_iso_or_equiv
 _atom_site_type_symbol
In1 1.0000000000 0.6445075089 0.3554924911 0.9471318454  Biso 1.0 In
In2 1.0000000000 0.3554924911 0.6445075089 0.4471318454  Biso 1.0 In
In3 1.0000000000 0.6445075089 0.3554924911 0.5528681546  Biso 1.0 In
In4 1.0000000000 0.3554924911 0.6445075089 0.0528681546  Biso 1.0 In
Pd5 1.0000000000 0.2175735201 0.7824264799 0.7500000000  Biso 1.0 Pd
Pd6 1.0000000000 0.7824264799 0.2175735201 0.2500000000  Biso 1.0 Pd
Yb7 1.0000000000 0.9340897357 0.0659102643 0.7500000000  Biso 1.0 Yb
Yb8 1.0000000000 0.0659102643 0.9340897357 0.2500000000  Biso 1.0 Yb
