# AFLOW.org Repositories
# In2Pt1Sr1   [ORCC,ORCC,oS16] (STD_PRIM d
data_In2Pt1Sr1
_pd_phase_name In2Pt1Sr1
_cell_length_a  5.9200981763
_cell_length_b  5.9200981763
_cell_length_c  8.0061467860
_cell_angle_alpha  90.0000000000
_cell_angle_beta  90.0000000000
_cell_angle_gamma  135.2128440760
_symmetry_space_group_name_H-M  'P1'
_symmetry_Int_Tables_Number  1
loop_
_symmetry_equiv_pos_site_id
_symmetry_equiv_pos_as_xyz
  1  x,y,z
loop_
 _atom_site_label
 _atom_site_occupancy
 _atom_site_fract_x
 _atom_site_fract_y
 _atom_site_fract_z
 _atom_site_thermal_displace_type
 _atom_site_B_iso_or_equiv
 _atom_site_type_symbol
In1 1.0000000000 0.6513474860 0.3486525140 0.9462061817  Biso 1.0 In
In2 1.0000000000 0.3486525140 0.6513474860 0.4462061817  Biso 1.0 In
In3 1.0000000000 0.6513474860 0.3486525140 0.5537938183  Biso 1.0 In
In4 1.0000000000 0.3486525140 0.6513474860 0.0537938183  Biso 1.0 In
Pt5 1.0000000000 0.2202096695 0.7797903305 0.7500000000  Biso 1.0 Pt
Pt6 1.0000000000 0.7797903305 0.2202096695 0.2500000000  Biso 1.0 Pt
Sr7 1.0000000000 0.9384348101 0.0615651899 0.7500000000  Biso 1.0 Sr
Sr8 1.0000000000 0.0615651899 0.9384348101 0.2500000000  Biso 1.0 Sr
