# AFLOW.org Repositories
# In2Se4Zn1   [BCT,BCT2,tI14] (STD_PRIM do
data_In2Se4Zn1
_pd_phase_name In2Se4Zn1
_cell_length_a  7.1172273411
_cell_length_b  7.1172273411
_cell_length_c  7.1172273411
_cell_angle_alpha  131.9718893172
_cell_angle_beta  131.9718893172
_cell_angle_gamma  70.2734282772
_symmetry_space_group_name_H-M  'P1'
_symmetry_Int_Tables_Number  1
loop_
_symmetry_equiv_pos_site_id
_symmetry_equiv_pos_as_xyz
  1  x,y,z
loop_
 _atom_site_label
 _atom_site_occupancy
 _atom_site_fract_x
 _atom_site_fract_y
 _atom_site_fract_z
 _atom_site_thermal_displace_type
 _atom_site_B_iso_or_equiv
 _atom_site_type_symbol
In1 1.0000000000 0.5000000000 0.5000000000 0.0000000000  Biso 1.0 In
In2 1.0000000000 0.2500000000 0.7500000000 0.5000000000  Biso 1.0 In
Se3 1.0000000000 0.6520194527 0.1299823868 0.0425802561  Biso 1.0 Se
Se4 1.0000000000 0.0874021307 0.6094391965 0.9574197439  Biso 1.0 Se
Se5 1.0000000000 0.3905608035 0.3479805473 0.4779629342  Biso 1.0 Se
Se6 1.0000000000 0.8700176132 0.9125978693 0.5220370658  Biso 1.0 Se
Zn7 1.0000000000 0.0000000000 0.0000000000 0.0000000000  Biso 1.0 Zn
