# AFLOW.org Repositories
# In3Ru1   [TET,TET,tP16] (STD_PRIM doi:10
data_In3Ru1
_pd_phase_name In3Ru1
_cell_length_a  7.0545115140
_cell_length_b  7.0545115140
_cell_length_c  7.2879355126
_cell_angle_alpha  90.0000000000
_cell_angle_beta  90.0000000000
_cell_angle_gamma  90.0000000000
_symmetry_space_group_name_H-M  'P1'
_symmetry_Int_Tables_Number  1
loop_
_symmetry_equiv_pos_site_id
_symmetry_equiv_pos_as_xyz
  1  x,y,z
loop_
 _atom_site_label
 _atom_site_occupancy
 _atom_site_fract_x
 _atom_site_fract_y
 _atom_site_fract_z
 _atom_site_thermal_displace_type
 _atom_site_B_iso_or_equiv
 _atom_site_type_symbol
In1 1.0000000000 0.0000000000 0.5000000000 0.0000000000  Biso 1.0 In
In2 1.0000000000 0.0000000000 0.5000000000 0.5000000000  Biso 1.0 In
In3 1.0000000000 0.5000000000 0.0000000000 0.5000000000  Biso 1.0 In
In4 1.0000000000 0.5000000000 0.0000000000 0.0000000000  Biso 1.0 In
In5 1.0000000000 0.1553413124 0.1553413124 0.2622816362  Biso 1.0 In
In6 1.0000000000 0.8446586876 0.8446586876 0.2622816362  Biso 1.0 In
In7 1.0000000000 0.3446586876 0.6553413124 0.7622816362  Biso 1.0 In
In8 1.0000000000 0.6553413124 0.3446586876 0.7622816362  Biso 1.0 In
In9 1.0000000000 0.3446586876 0.6553413124 0.2377183638  Biso 1.0 In
In10 1.0000000000 0.6553413124 0.3446586876 0.2377183638  Biso 1.0 In
In11 1.0000000000 0.1553413124 0.1553413124 0.7377183638  Biso 1.0 In
In12 1.0000000000 0.8446586876 0.8446586876 0.7377183638  Biso 1.0 In
Ru13 1.0000000000 0.3452068842 0.3452068842 0.0000000000  Biso 1.0 Ru
Ru14 1.0000000000 0.6547931158 0.6547931158 0.0000000000  Biso 1.0 Ru
Ru15 1.0000000000 0.1547931158 0.8452068842 0.5000000000  Biso 1.0 Ru
Ru16 1.0000000000 0.8452068842 0.1547931158 0.5000000000  Biso 1.0 Ru
