# AFLOW.org Repositories
# Ir1La4Mg1   [FCC,FCC,cF96] (STD_PRIM doi
data_Ir1La4Mg1
_pd_phase_name Ir1La4Mg1
_cell_length_a  10.2762471803
_cell_length_b  10.2762471803
_cell_length_c  10.2762471803
_cell_angle_alpha  60.0000000000
_cell_angle_beta  60.0000000000
_cell_angle_gamma  60.0000000000
_symmetry_space_group_name_H-M  'P1'
_symmetry_Int_Tables_Number  1
loop_
_symmetry_equiv_pos_site_id
_symmetry_equiv_pos_as_xyz
  1  x,y,z
loop_
 _atom_site_label
 _atom_site_occupancy
 _atom_site_fract_x
 _atom_site_fract_y
 _atom_site_fract_z
 _atom_site_thermal_displace_type
 _atom_site_B_iso_or_equiv
 _atom_site_type_symbol
Ir1 1.0000000000 0.8585402931 0.4243791207 0.8585402931  Biso 1.0 Ir
Ir2 1.0000000000 0.8585402931 0.8585402931 0.4243791207  Biso 1.0 Ir
Ir3 1.0000000000 0.8585402931 0.8585402931 0.8585402931  Biso 1.0 Ir
Ir4 1.0000000000 0.4243791207 0.8585402931 0.8585402931  Biso 1.0 Ir
La5 1.0000000000 0.0615223996 0.0615223996 0.4384776004  Biso 1.0 La
La6 1.0000000000 0.4384776004 0.4384776004 0.0615223996  Biso 1.0 La
La7 1.0000000000 0.4384776004 0.0615223996 0.4384776004  Biso 1.0 La
La8 1.0000000000 0.0615223996 0.4384776004 0.0615223996  Biso 1.0 La
La9 1.0000000000 0.4384776004 0.0615223996 0.0615223996  Biso 1.0 La
La10 1.0000000000 0.0615223996 0.4384776004 0.4384776004  Biso 1.0 La
La11 1.0000000000 0.1888494465 0.1888494465 0.8111505535  Biso 1.0 La
La12 1.0000000000 0.8111505535 0.8111505535 0.1888494465  Biso 1.0 La
La13 1.0000000000 0.8111505535 0.1888494465 0.8111505535  Biso 1.0 La
La14 1.0000000000 0.1888494465 0.8111505535 0.1888494465  Biso 1.0 La
La15 1.0000000000 0.8111505535 0.1888494465 0.1888494465  Biso 1.0 La
La16 1.0000000000 0.1888494465 0.8111505535 0.8111505535  Biso 1.0 La
La17 1.0000000000 0.6543837817 0.0368486548 0.6543837817  Biso 1.0 La
La18 1.0000000000 0.6543837817 0.6543837817 0.0368486548  Biso 1.0 La
La19 1.0000000000 0.6543837817 0.6543837817 0.6543837817  Biso 1.0 La
La20 1.0000000000 0.0368486548 0.6543837817 0.6543837817  Biso 1.0 La
Mg21 1.0000000000 0.4216357474 0.7350927578 0.4216357474  Biso 1.0 Mg
Mg22 1.0000000000 0.4216357474 0.4216357474 0.7350927578  Biso 1.0 Mg
Mg23 1.0000000000 0.4216357474 0.4216357474 0.4216357474  Biso 1.0 Mg
Mg24 1.0000000000 0.7350927578 0.4216357474 0.4216357474  Biso 1.0 Mg
