# AFLOW.org Repositories
# Ir1La1Si1   [CUB,CUB,cP12] (STD_PRIM doi
data_Ir1La1Si1
_pd_phase_name Ir1La1Si1
_cell_length_a  6.4214920925
_cell_length_b  6.4214920925
_cell_length_c  6.4214920925
_cell_angle_alpha  90.0000000000
_cell_angle_beta  90.0000000000
_cell_angle_gamma  90.0000000000
_symmetry_space_group_name_H-M  'P1'
_symmetry_Int_Tables_Number  1
loop_
_symmetry_equiv_pos_site_id
_symmetry_equiv_pos_as_xyz
  1  x,y,z
loop_
 _atom_site_label
 _atom_site_occupancy
 _atom_site_fract_x
 _atom_site_fract_y
 _atom_site_fract_z
 _atom_site_thermal_displace_type
 _atom_site_B_iso_or_equiv
 _atom_site_type_symbol
Ir1 1.0000000000 0.5769035768 0.5769035768 0.4230964232  Biso 1.0 Ir
Ir2 1.0000000000 0.9230964232 0.4230964232 0.9230964232  Biso 1.0 Ir
Ir3 1.0000000000 0.4230964232 0.0769035768 0.0769035768  Biso 1.0 Ir
Ir4 1.0000000000 0.0769035768 0.9230964232 0.5769035768  Biso 1.0 Ir
La5 1.0000000000 0.8676211170 0.8676211170 0.1323788830  Biso 1.0 La
La6 1.0000000000 0.6323788830 0.1323788830 0.6323788830  Biso 1.0 La
La7 1.0000000000 0.1323788830 0.3676211170 0.3676211170  Biso 1.0 La
La8 1.0000000000 0.3676211170 0.6323788830 0.8676211170  Biso 1.0 La
Si9 1.0000000000 0.1593244446 0.1593244446 0.8406755554  Biso 1.0 Si
Si10 1.0000000000 0.3406755554 0.8406755554 0.3406755554  Biso 1.0 Si
Si11 1.0000000000 0.8406755554 0.6593244446 0.6593244446  Biso 1.0 Si
Si12 1.0000000000 0.6593244446 0.3406755554 0.1593244446  Biso 1.0 Si
