# AFLOW.org Repositories
# Ir1Nb1   [ORC,ORC,oP12] (STD_PRIM doi:10
data_Ir1Nb1
_pd_phase_name Ir1Nb1
_cell_length_a  2.8724435512
_cell_length_b  4.8551493670
_cell_length_c  13.8009248536
_cell_angle_alpha  90.0000000000
_cell_angle_beta  90.0000000000
_cell_angle_gamma  90.0000000000
_symmetry_space_group_name_H-M  'P1'
_symmetry_Int_Tables_Number  1
loop_
_symmetry_equiv_pos_site_id
_symmetry_equiv_pos_as_xyz
  1  x,y,z
loop_
 _atom_site_label
 _atom_site_occupancy
 _atom_site_fract_x
 _atom_site_fract_y
 _atom_site_fract_z
 _atom_site_thermal_displace_type
 _atom_site_B_iso_or_equiv
 _atom_site_type_symbol
Ir1 1.0000000000 0.5000000000 0.4610684013 0.2500000000  Biso 1.0 Ir
Ir2 1.0000000000 0.5000000000 0.5389315987 0.7500000000  Biso 1.0 Ir
Ir3 1.0000000000 0.5000000000 0.1756242328 0.9174890690  Biso 1.0 Ir
Ir4 1.0000000000 0.5000000000 0.1756242328 0.5825109310  Biso 1.0 Ir
Ir5 1.0000000000 0.5000000000 0.8243757672 0.0825109310  Biso 1.0 Ir
Ir6 1.0000000000 0.5000000000 0.8243757672 0.4174890690  Biso 1.0 Ir
Nb7 1.0000000000 0.0000000000 0.9502886792 0.2500000000  Biso 1.0 Nb
Nb8 1.0000000000 0.0000000000 0.0497113208 0.7500000000  Biso 1.0 Nb
Nb9 1.0000000000 0.0000000000 0.6737586916 0.9151364679  Biso 1.0 Nb
Nb10 1.0000000000 0.0000000000 0.6737586916 0.5848635321  Biso 1.0 Nb
Nb11 1.0000000000 0.0000000000 0.3262413084 0.0848635321  Biso 1.0 Nb
Nb12 1.0000000000 0.0000000000 0.3262413084 0.4151364679  Biso 1.0 Nb
