# AFLOW.org Repositories
# Ir2Mg1   [HEX,HEX,hP12] (STD_PRIM doi:10
data_Ir2Mg1
_pd_phase_name Ir2Mg1
_cell_length_a  5.1546584608
_cell_length_b  5.1546584608
_cell_length_c  8.4305501521
_cell_angle_alpha  90.0000000000
_cell_angle_beta  90.0000000000
_cell_angle_gamma  120.0000000000
_symmetry_space_group_name_H-M  'P1'
_symmetry_Int_Tables_Number  1
loop_
_symmetry_equiv_pos_site_id
_symmetry_equiv_pos_as_xyz
  1  x,y,z
loop_
 _atom_site_label
 _atom_site_occupancy
 _atom_site_fract_x
 _atom_site_fract_y
 _atom_site_fract_z
 _atom_site_thermal_displace_type
 _atom_site_B_iso_or_equiv
 _atom_site_type_symbol
Ir1 1.0000000000 0.0000000000 0.0000000000 0.0000000000  Biso 1.0 Ir
Ir2 1.0000000000 0.0000000000 0.0000000000 0.5000000000  Biso 1.0 Ir
Ir3 1.0000000000 0.8284924594 0.6569977733 0.2500000000  Biso 1.0 Ir
Ir4 1.0000000000 0.3430022267 0.1715075406 0.2500000000  Biso 1.0 Ir
Ir5 1.0000000000 0.8285018709 0.1714981291 0.2500000000  Biso 1.0 Ir
Ir6 1.0000000000 0.1715075406 0.3430022267 0.7500000000  Biso 1.0 Ir
Ir7 1.0000000000 0.6569977733 0.8284924594 0.7500000000  Biso 1.0 Ir
Ir8 1.0000000000 0.1714981291 0.8285018709 0.7500000000  Biso 1.0 Ir
Mg9 1.0000000000 0.3333120905 0.6666879095 0.0688382526  Biso 1.0 Mg
Mg10 1.0000000000 0.6666879095 0.3333120905 0.5688382526  Biso 1.0 Mg
Mg11 1.0000000000 0.6666879095 0.3333120905 0.9311617474  Biso 1.0 Mg
Mg12 1.0000000000 0.3333120905 0.6666879095 0.4311617474  Biso 1.0 Mg
