# AFLOW.org Repositories
# K10Pb48   [BCC,BCC,cI58] (STD_PRIM doi:1
data_K10Pb48
_pd_phase_name K10Pb48
_cell_length_a  10.8512719471
_cell_length_b  10.8512719471
_cell_length_c  10.8512719471
_cell_angle_alpha  109.4712206345
_cell_angle_beta  109.4712206345
_cell_angle_gamma  109.4712206345
_symmetry_space_group_name_H-M  'P1'
_symmetry_Int_Tables_Number  1
loop_
_symmetry_equiv_pos_site_id
_symmetry_equiv_pos_as_xyz
  1  x,y,z
loop_
 _atom_site_label
 _atom_site_occupancy
 _atom_site_fract_x
 _atom_site_fract_y
 _atom_site_fract_z
 _atom_site_thermal_displace_type
 _atom_site_B_iso_or_equiv
 _atom_site_type_symbol
K1 1.0000000000 0.0000000000 0.0000000000 0.0000000000  Biso 1.0 K
K2 1.0000000000 0.3631761073 0.0000000000 0.0000000000  Biso 1.0 K
K3 1.0000000000 0.6368238927 0.6368238927 0.6368238927  Biso 1.0 K
K4 1.0000000000 0.0000000000 0.3631761073 0.0000000000  Biso 1.0 K
K5 1.0000000000 0.0000000000 0.0000000000 0.3631761073  Biso 1.0 K
Pb6 1.0000000000 0.8093456258 0.1985175331 0.1985175331  Biso 1.0 Pb
Pb7 1.0000000000 0.1906543742 0.3891719073 0.3891719073  Biso 1.0 Pb
Pb8 1.0000000000 0.0000000000 0.6108280927 0.8014824669  Biso 1.0 Pb
Pb9 1.0000000000 0.0000000000 0.8014824669 0.6108280927  Biso 1.0 Pb
Pb10 1.0000000000 0.6108280927 0.0000000000 0.8014824669  Biso 1.0 Pb
Pb11 1.0000000000 0.8014824669 0.0000000000 0.6108280927  Biso 1.0 Pb
Pb12 1.0000000000 0.3891719073 0.1906543742 0.3891719073  Biso 1.0 Pb
Pb13 1.0000000000 0.1985175331 0.8093456258 0.1985175331  Biso 1.0 Pb
Pb14 1.0000000000 0.6108280927 0.8014824669 0.0000000000  Biso 1.0 Pb
Pb15 1.0000000000 0.8014824669 0.6108280927 0.0000000000  Biso 1.0 Pb
Pb16 1.0000000000 0.1985175331 0.1985175331 0.8093456258  Biso 1.0 Pb
Pb17 1.0000000000 0.3891719073 0.3891719073 0.1906543742  Biso 1.0 Pb
Pb18 1.0000000000 0.5984262721 0.3205983867 0.0000000000  Biso 1.0 Pb
Pb19 1.0000000000 0.4015737279 0.4015737279 0.7221721147  Biso 1.0 Pb
Pb20 1.0000000000 0.3205983867 0.5984262721 0.0000000000  Biso 1.0 Pb
Pb21 1.0000000000 0.6794016133 0.6794016133 0.2778278853  Biso 1.0 Pb
Pb22 1.0000000000 0.2778278853 0.6794016133 0.6794016133  Biso 1.0 Pb
Pb23 1.0000000000 0.0000000000 0.3205983867 0.5984262721  Biso 1.0 Pb
Pb24 1.0000000000 0.7221721147 0.4015737279 0.4015737279  Biso 1.0 Pb
Pb25 1.0000000000 0.0000000000 0.5984262721 0.3205983867  Biso 1.0 Pb
Pb26 1.0000000000 0.5984262721 0.0000000000 0.3205983867  Biso 1.0 Pb
Pb27 1.0000000000 0.6794016133 0.2778278853 0.6794016133  Biso 1.0 Pb
Pb28 1.0000000000 0.3205983867 0.0000000000 0.5984262721  Biso 1.0 Pb
Pb29 1.0000000000 0.4015737279 0.7221721147 0.4015737279  Biso 1.0 Pb
