# AFLOW.org Repositories
# K1O6Os2   [FCC,FCC,cF72] (STD_PRIM doi:1
data_K1O6Os2
_pd_phase_name K1O6Os2
_cell_length_a  7.2449479773
_cell_length_b  7.2449479773
_cell_length_c  7.2449479773
_cell_angle_alpha  60.0000000000
_cell_angle_beta  60.0000000000
_cell_angle_gamma  60.0000000000
_symmetry_space_group_name_H-M  'P1'
_symmetry_Int_Tables_Number  1
loop_
_symmetry_equiv_pos_site_id
_symmetry_equiv_pos_as_xyz
  1  x,y,z
loop_
 _atom_site_label
 _atom_site_occupancy
 _atom_site_fract_x
 _atom_site_fract_y
 _atom_site_fract_z
 _atom_site_thermal_displace_type
 _atom_site_B_iso_or_equiv
 _atom_site_type_symbol
K1 1.0000000000 0.7500000000 0.7500000000 0.7500000000  Biso 1.0 K
K2 1.0000000000 0.5000000000 0.5000000000 0.5000000000  Biso 1.0 K
O3 1.0000000000 0.8063464599 0.1936535401 0.8063464599  Biso 1.0 O
O4 1.0000000000 0.1936535401 0.8063464599 0.1936535401  Biso 1.0 O
O5 1.0000000000 0.1936535401 0.8063464599 0.8063464599  Biso 1.0 O
O6 1.0000000000 0.8063464599 0.1936535401 0.1936535401  Biso 1.0 O
O7 1.0000000000 0.8063464599 0.8063464599 0.1936535401  Biso 1.0 O
O8 1.0000000000 0.1936535401 0.1936535401 0.8063464599  Biso 1.0 O
O9 1.0000000000 0.4436983470 0.0563016530 0.4436983470  Biso 1.0 O
O10 1.0000000000 0.0563016530 0.4436983470 0.0563016530  Biso 1.0 O
O11 1.0000000000 0.0563016530 0.4436983470 0.4436983470  Biso 1.0 O
O12 1.0000000000 0.4436983470 0.0563016530 0.0563016530  Biso 1.0 O
O13 1.0000000000 0.4436983470 0.4436983470 0.0563016530  Biso 1.0 O
O14 1.0000000000 0.0563016530 0.0563016530 0.4436983470  Biso 1.0 O
Os15 1.0000000000 0.1250017324 0.1250017324 0.1250017324  Biso 1.0 Os
Os16 1.0000000000 0.1250017324 0.1250017324 0.6249948027  Biso 1.0 Os
Os17 1.0000000000 0.6249948027 0.1250017324 0.1250017324  Biso 1.0 Os
Os18 1.0000000000 0.1250017324 0.6249948027 0.1250017324  Biso 1.0 Os
