# AFLOW.org Repositories
# La10O3Si8   [HEX,HEX,hP21] (STD_PRIM doi
data_La10O3Si8
_pd_phase_name La10O3Si8
_cell_length_a  11.0179589941
_cell_length_b  11.0179589941
_cell_length_c  4.7413213597
_cell_angle_alpha  90.0000000000
_cell_angle_beta  90.0000000000
_cell_angle_gamma  120.0000000000
_symmetry_space_group_name_H-M  'P1'
_symmetry_Int_Tables_Number  1
loop_
_symmetry_equiv_pos_site_id
_symmetry_equiv_pos_as_xyz
  1  x,y,z
loop_
 _atom_site_label
 _atom_site_occupancy
 _atom_site_fract_x
 _atom_site_fract_y
 _atom_site_fract_z
 _atom_site_thermal_displace_type
 _atom_site_B_iso_or_equiv
 _atom_site_type_symbol
La1 1.0000000000 0.0000000000 0.0000000000 0.0000000000  Biso 1.0 La
La2 1.0000000000 0.4202126454 0.2101033748 0.0000000000  Biso 1.0 La
La3 1.0000000000 0.7898949324 0.2101070676 0.0000000000  Biso 1.0 La
La4 1.0000000000 0.7898946252 0.5797873546 0.0000000000  Biso 1.0 La
La5 1.0000000000 0.5797873546 0.7898966252 0.0000000000  Biso 1.0 La
La6 1.0000000000 0.2101050676 0.7898929324 0.0000000000  Biso 1.0 La
La7 1.0000000000 0.2101053748 0.4202126454 0.0000000000  Biso 1.0 La
La8 1.0000000000 0.5000000000 0.0000000000 0.5000000000  Biso 1.0 La
La9 1.0000000000 0.0000000000 0.5000000000 0.5000000000  Biso 1.0 La
La10 1.0000000000 0.5000000000 0.5000000000 0.5000000000  Biso 1.0 La
O11 1.0000000000 0.5000000000 0.0000000000 0.0000000000  Biso 1.0 O
O12 1.0000000000 0.0000000000 0.5000000000 0.0000000000  Biso 1.0 O
O13 1.0000000000 0.5000000000 0.5000000000 0.0000000000  Biso 1.0 O
Si14 1.0000000000 0.0000000000 0.2174946910 0.5000000000  Biso 1.0 Si
Si15 1.0000000000 0.7825025396 0.7825025396 0.5000000000  Biso 1.0 Si
Si16 1.0000000000 0.2174946910 0.0000000000 0.5000000000  Biso 1.0 Si
Si17 1.0000000000 0.0000000000 0.7825053090 0.5000000000  Biso 1.0 Si
Si18 1.0000000000 0.2174974604 0.2174974604 0.5000000000  Biso 1.0 Si
Si19 1.0000000000 0.7825053090 0.0000000000 0.5000000000  Biso 1.0 Si
Si20 1.0000000000 0.6666811351 0.3333188649 0.5000000000  Biso 1.0 Si
Si21 1.0000000000 0.3333188649 0.6666811351 0.5000000000  Biso 1.0 Si
