# AFLOW.org Repositories
# La1Sb2   [ORCC,ORCC,oS24] (STD_PRIM doi:
data_La1Sb2
_pd_phase_name La1Sb2
_cell_length_a  4.4776759654
_cell_length_b  4.4776759654
_cell_length_c  18.8300771183
_cell_angle_alpha  90.0000000000
_cell_angle_beta  90.0000000000
_cell_angle_gamma  91.2961069565
_symmetry_space_group_name_H-M  'P1'
_symmetry_Int_Tables_Number  1
loop_
_symmetry_equiv_pos_site_id
_symmetry_equiv_pos_as_xyz
  1  x,y,z
loop_
 _atom_site_label
 _atom_site_occupancy
 _atom_site_fract_x
 _atom_site_fract_y
 _atom_site_fract_z
 _atom_site_thermal_displace_type
 _atom_site_B_iso_or_equiv
 _atom_site_type_symbol
La1 1.0000000000 0.1355839119 0.1355839119 0.3895809903  Biso 1.0 La
La2 1.0000000000 0.3644160881 0.3644160881 0.8895809903  Biso 1.0 La
La3 1.0000000000 0.6355839119 0.6355839119 0.1104190097  Biso 1.0 La
La4 1.0000000000 0.8644160881 0.8644160881 0.6104190097  Biso 1.0 La
Sb5 1.0000000000 0.1307132032 0.1307132032 0.0622753668  Biso 1.0 Sb
Sb6 1.0000000000 0.3692867968 0.3692867968 0.5622753668  Biso 1.0 Sb
Sb7 1.0000000000 0.6307132032 0.6307132032 0.4377246332  Biso 1.0 Sb
Sb8 1.0000000000 0.8692867968 0.8692867968 0.9377246332  Biso 1.0 Sb
Sb9 1.0000000000 0.6247245284 0.1247245284 0.2500000000  Biso 1.0 Sb
Sb10 1.0000000000 0.8752754716 0.3752754716 0.7500000000  Biso 1.0 Sb
Sb11 1.0000000000 0.3752754716 0.8752754716 0.7500000000  Biso 1.0 Sb
Sb12 1.0000000000 0.1247245284 0.6247245284 0.2500000000  Biso 1.0 Sb
