# AFLOW.org Repositories
# La2O3   [BCC,BCC,cI80] (STD_PRIM doi:10.
data_La2O3
_pd_phase_name La2O3
_cell_length_a  9.9886255481
_cell_length_b  9.9886255481
_cell_length_c  9.9886255481
_cell_angle_alpha  109.4712206345
_cell_angle_beta  109.4712206345
_cell_angle_gamma  109.4712206345
_symmetry_space_group_name_H-M  'P1'
_symmetry_Int_Tables_Number  1
loop_
_symmetry_equiv_pos_site_id
_symmetry_equiv_pos_as_xyz
  1  x,y,z
loop_
 _atom_site_label
 _atom_site_occupancy
 _atom_site_fract_x
 _atom_site_fract_y
 _atom_site_fract_z
 _atom_site_thermal_displace_type
 _atom_site_B_iso_or_equiv
 _atom_site_type_symbol
La1 1.0000000000 0.5000000000 0.5000000000 0.5000000000  Biso 1.0 La
La2 1.0000000000 0.0000000000 0.5000000000 0.0000000000  Biso 1.0 La
La3 1.0000000000 0.0000000000 0.0000000000 0.5000000000  Biso 1.0 La
La4 1.0000000000 0.5000000000 0.0000000000 0.0000000000  Biso 1.0 La
La5 1.0000000000 0.7794915931 0.7500000000 0.0294915931  Biso 1.0 La
La6 1.0000000000 0.7205084069 0.2500000000 0.4705084069  Biso 1.0 La
La7 1.0000000000 0.7500000000 0.0294915931 0.7794915931  Biso 1.0 La
La8 1.0000000000 0.2500000000 0.4705084069 0.7205084069  Biso 1.0 La
La9 1.0000000000 0.0294915931 0.7794915931 0.7500000000  Biso 1.0 La
La10 1.0000000000 0.4705084069 0.7205084069 0.2500000000  Biso 1.0 La
La11 1.0000000000 0.2205084069 0.2500000000 0.9705084069  Biso 1.0 La
La12 1.0000000000 0.2794915931 0.7500000000 0.5294915931  Biso 1.0 La
La13 1.0000000000 0.2500000000 0.9705084069 0.2205084069  Biso 1.0 La
La14 1.0000000000 0.7500000000 0.5294915931 0.2794915931  Biso 1.0 La
La15 1.0000000000 0.9705084069 0.2205084069 0.2500000000  Biso 1.0 La
La16 1.0000000000 0.5294915931 0.2794915931 0.7500000000  Biso 1.0 La
O17 1.0000000000 0.2317643615 0.4731062443 0.4618731285  Biso 1.0 O
O18 1.0000000000 0.0112331158 0.2698912330 0.0381268715  Biso 1.0 O
O19 1.0000000000 0.2682356385 0.2301087670 0.7413418828  Biso 1.0 O
O20 1.0000000000 0.4887668842 0.0268937557 0.7586581172  Biso 1.0 O
O21 1.0000000000 0.4731062443 0.4618731285 0.2317643615  Biso 1.0 O
O22 1.0000000000 0.2698912330 0.0381268715 0.0112331158  Biso 1.0 O
O23 1.0000000000 0.2301087670 0.7413418828 0.2682356385  Biso 1.0 O
O24 1.0000000000 0.0268937557 0.7586581172 0.4887668842  Biso 1.0 O
O25 1.0000000000 0.4618731285 0.2317643615 0.4731062443  Biso 1.0 O
O26 1.0000000000 0.0381268715 0.0112331158 0.2698912330  Biso 1.0 O
O27 1.0000000000 0.7413418828 0.2682356385 0.2301087670  Biso 1.0 O
O28 1.0000000000 0.7586581172 0.4887668842 0.0268937557  Biso 1.0 O
O29 1.0000000000 0.7682356385 0.5268937557 0.5381268715  Biso 1.0 O
O30 1.0000000000 0.9887668842 0.7301087670 0.9618731285  Biso 1.0 O
O31 1.0000000000 0.7317643615 0.7698912330 0.2586581172  Biso 1.0 O
O32 1.0000000000 0.5112331158 0.9731062443 0.2413418828  Biso 1.0 O
O33 1.0000000000 0.5268937557 0.5381268715 0.7682356385  Biso 1.0 O
O34 1.0000000000 0.7301087670 0.9618731285 0.9887668842  Biso 1.0 O
O35 1.0000000000 0.7698912330 0.2586581172 0.7317643615  Biso 1.0 O
O36 1.0000000000 0.9731062443 0.2413418828 0.5112331158  Biso 1.0 O
O37 1.0000000000 0.5381268715 0.7682356385 0.5268937557  Biso 1.0 O
O38 1.0000000000 0.9618731285 0.9887668842 0.7301087670  Biso 1.0 O
O39 1.0000000000 0.2586581172 0.7317643615 0.7698912330  Biso 1.0 O
O40 1.0000000000 0.2413418828 0.5112331158 0.9731062443  Biso 1.0 O
