# AFLOW.org Repositories
# Li1O2Rh1   [FCC,FCC,cF64] (STD_PRIM doi:
data_Li1O2Rh1
_pd_phase_name Li1O2Rh1
_cell_length_a  6.0732945994
_cell_length_b  6.0732945994
_cell_length_c  6.0732945994
_cell_angle_alpha  60.0000000000
_cell_angle_beta  60.0000000000
_cell_angle_gamma  60.0000000000
_symmetry_space_group_name_H-M  'P1'
_symmetry_Int_Tables_Number  1
loop_
_symmetry_equiv_pos_site_id
_symmetry_equiv_pos_as_xyz
  1  x,y,z
loop_
 _atom_site_label
 _atom_site_occupancy
 _atom_site_fract_x
 _atom_site_fract_y
 _atom_site_fract_z
 _atom_site_thermal_displace_type
 _atom_site_B_iso_or_equiv
 _atom_site_type_symbol
Li1 1.0000000000 0.6250000000 0.6250000000 0.1250000000  Biso 1.0 Li
Li2 1.0000000000 0.6250000000 0.6250000000 0.6250000000  Biso 1.0 Li
Li3 1.0000000000 0.1250000000 0.6250000000 0.6250000000  Biso 1.0 Li
Li4 1.0000000000 0.6250000000 0.1250000000 0.6250000000  Biso 1.0 Li
O5 1.0000000000 0.8817398001 0.8817398001 0.3547805998  Biso 1.0 O
O6 1.0000000000 0.8817398001 0.8817398001 0.8817398001  Biso 1.0 O
O7 1.0000000000 0.3547805998 0.8817398001 0.8817398001  Biso 1.0 O
O8 1.0000000000 0.8817398001 0.3547805998 0.8817398001  Biso 1.0 O
O9 1.0000000000 0.3682601999 0.3682601999 0.3682601999  Biso 1.0 O
O10 1.0000000000 0.3682601999 0.3682601999 0.8952194002  Biso 1.0 O
O11 1.0000000000 0.8952194002 0.3682601999 0.3682601999  Biso 1.0 O
O12 1.0000000000 0.3682601999 0.8952194002 0.3682601999  Biso 1.0 O
Rh13 1.0000000000 0.1250000000 0.1250000000 0.6250000000  Biso 1.0 Rh
Rh14 1.0000000000 0.1250000000 0.1250000000 0.1250000000  Biso 1.0 Rh
Rh15 1.0000000000 0.6250000000 0.1250000000 0.1250000000  Biso 1.0 Rh
Rh16 1.0000000000 0.1250000000 0.6250000000 0.1250000000  Biso 1.0 Rh
