# AFLOW.org Repositories
# Li1Pd2Sn6   [TET,TET,tP18] (STD_PRIM doi
data_Li1Pd2Sn6
_pd_phase_name Li1Pd2Sn6
_cell_length_a  6.8172213770
_cell_length_b  6.8172213770
_cell_length_c  8.8741331211
_cell_angle_alpha  90.0000000000
_cell_angle_beta  90.0000000000
_cell_angle_gamma  90.0000000000
_symmetry_space_group_name_H-M  'P1'
_symmetry_Int_Tables_Number  1
loop_
_symmetry_equiv_pos_site_id
_symmetry_equiv_pos_as_xyz
  1  x,y,z
loop_
 _atom_site_label
 _atom_site_occupancy
 _atom_site_fract_x
 _atom_site_fract_y
 _atom_site_fract_z
 _atom_site_thermal_displace_type
 _atom_site_B_iso_or_equiv
 _atom_site_type_symbol
Li1 1.0000000000 0.0000000000 0.0000000000 0.5000000000  Biso 1.0 Li
Li2 1.0000000000 0.5000000000 0.5000000000 0.5000000000  Biso 1.0 Li
Pd3 1.0000000000 0.0000000000 0.0000000000 0.1801516755  Biso 1.0 Pd
Pd4 1.0000000000 0.5000000000 0.5000000000 0.8198483245  Biso 1.0 Pd
Pd5 1.0000000000 0.0000000000 0.0000000000 0.8198483245  Biso 1.0 Pd
Pd6 1.0000000000 0.5000000000 0.5000000000 0.1801516755  Biso 1.0 Pd
Sn7 1.0000000000 0.6606337358 0.1606337358 0.3202884152  Biso 1.0 Sn
Sn8 1.0000000000 0.3393662642 0.8393662642 0.3202884152  Biso 1.0 Sn
Sn9 1.0000000000 0.8393662642 0.6606337358 0.3202884152  Biso 1.0 Sn
Sn10 1.0000000000 0.1606337358 0.3393662642 0.3202884152  Biso 1.0 Sn
Sn11 1.0000000000 0.8393662642 0.6606337358 0.6797115848  Biso 1.0 Sn
Sn12 1.0000000000 0.1606337358 0.3393662642 0.6797115848  Biso 1.0 Sn
Sn13 1.0000000000 0.6606337358 0.1606337358 0.6797115848  Biso 1.0 Sn
Sn14 1.0000000000 0.3393662642 0.8393662642 0.6797115848  Biso 1.0 Sn
Sn15 1.0000000000 0.8356551673 0.3356551673 0.0000000000  Biso 1.0 Sn
Sn16 1.0000000000 0.1643448327 0.6643448327 0.0000000000  Biso 1.0 Sn
Sn17 1.0000000000 0.6643448327 0.8356551673 0.0000000000  Biso 1.0 Sn
Sn18 1.0000000000 0.3356551673 0.1643448327 0.0000000000  Biso 1.0 Sn
