# AFLOW.org Repositories
# Li1Pt1   [HEX,HEX,hP2] (STD_PRIM doi:10.
data_Li1Pt1
_pd_phase_name Li1Pt1
_cell_length_a  2.7599640495
_cell_length_b  2.7599640495
_cell_length_c  4.1704179425
_cell_angle_alpha  90.0000000000
_cell_angle_beta  90.0000000000
_cell_angle_gamma  120.0000000000
_symmetry_space_group_name_H-M  'P1'
_symmetry_Int_Tables_Number  1
loop_
_symmetry_equiv_pos_site_id
_symmetry_equiv_pos_as_xyz
  1  x,y,z
loop_
 _atom_site_label
 _atom_site_occupancy
 _atom_site_fract_x
 _atom_site_fract_y
 _atom_site_fract_z
 _atom_site_thermal_displace_type
 _atom_site_B_iso_or_equiv
 _atom_site_type_symbol
Li1 1.0000000000 0.6666983292 0.3333966584 0.5000000000  Biso 1.0 Li
Pt2 1.0000000000 0.0000000000 0.0000000000 0.0000000000  Biso 1.0 Pt
