# AFLOW.org Repositories
# Li2Mg8Si4   [TET,TET,tP7] (STD_PRIM doi:
data_Li2Mg8Si4
_pd_phase_name Li2Mg8Si4
_cell_length_a  4.5320191202
_cell_length_b  4.5320191202
_cell_length_c  6.5971106916
_cell_angle_alpha  90.0000000000
_cell_angle_beta  90.0000000000
_cell_angle_gamma  90.0000000000
_symmetry_space_group_name_H-M  'P1'
_symmetry_Int_Tables_Number  1
loop_
_symmetry_equiv_pos_site_id
_symmetry_equiv_pos_as_xyz
  1  x,y,z
loop_
 _atom_site_label
 _atom_site_occupancy
 _atom_site_fract_x
 _atom_site_fract_y
 _atom_site_fract_z
 _atom_site_thermal_displace_type
 _atom_site_B_iso_or_equiv
 _atom_site_type_symbol
Li1 1.0000000000 0.5000000000 0.5000000000 0.0000000000  Biso 1.0 Li
Mg2 1.0000000000 0.5000000000 0.0000000000 0.2637577832  Biso 1.0 Mg
Mg3 1.0000000000 0.0000000000 0.5000000000 0.7362422168  Biso 1.0 Mg
Mg4 1.0000000000 0.5000000000 0.0000000000 0.7362422168  Biso 1.0 Mg
Mg5 1.0000000000 0.0000000000 0.5000000000 0.2637577832  Biso 1.0 Mg
Si6 1.0000000000 0.0000000000 0.0000000000 0.0000000000  Biso 1.0 Si
Si7 1.0000000000 0.5000000000 0.5000000000 0.5000000000  Biso 1.0 Si
