# AFLOW.org Repositories
# Mg1N2Si1   [ORC,ORC,oP16] (STD_PRIM doi:
data_Mg1N2Si1
_pd_phase_name Mg1N2Si1
_cell_length_a  5.0292976660
_cell_length_b  5.3120832416
_cell_length_c  6.5025659089
_cell_angle_alpha  90.0000000000
_cell_angle_beta  90.0000000000
_cell_angle_gamma  90.0000000000
_symmetry_space_group_name_H-M  'P1'
_symmetry_Int_Tables_Number  1
loop_
_symmetry_equiv_pos_site_id
_symmetry_equiv_pos_as_xyz
  1  x,y,z
loop_
 _atom_site_label
 _atom_site_occupancy
 _atom_site_fract_x
 _atom_site_fract_y
 _atom_site_fract_z
 _atom_site_thermal_displace_type
 _atom_site_B_iso_or_equiv
 _atom_site_type_symbol
Mg1 1.0000000000 0.0018233247 0.0849296184 0.3777706144  Biso 1.0 Mg
Mg2 1.0000000000 0.5018233247 0.9150703816 0.6222293856  Biso 1.0 Mg
Mg3 1.0000000000 0.0018233247 0.5849296184 0.1222293856  Biso 1.0 Mg
Mg4 1.0000000000 0.5018233247 0.4150703816 0.8777706144  Biso 1.0 Mg
N5 1.0000000000 0.6434258055 0.0475536031 0.9045260944  Biso 1.0 N
N6 1.0000000000 0.1434258055 0.9524463969 0.0954739056  Biso 1.0 N
N7 1.0000000000 0.6434258055 0.5475536031 0.5954739056  Biso 1.0 N
N8 1.0000000000 0.1434258055 0.4524463969 0.4045260944  Biso 1.0 N
N9 1.0000000000 0.5795696759 0.1103397825 0.3439681901  Biso 1.0 N
N10 1.0000000000 0.0795696759 0.8896602175 0.6560318099  Biso 1.0 N
N11 1.0000000000 0.5795696759 0.6103397825 0.1560318099  Biso 1.0 N
N12 1.0000000000 0.0795696759 0.3896602175 0.8439681901  Biso 1.0 N
Si13 1.0000000000 0.9901811940 0.0694226624 0.8746442922  Biso 1.0 Si
Si14 1.0000000000 0.4901811940 0.9305773376 0.1253557078  Biso 1.0 Si
Si15 1.0000000000 0.9901811940 0.5694226624 0.6253557078  Biso 1.0 Si
Si16 1.0000000000 0.4901811940 0.4305773376 0.3746442922  Biso 1.0 Si
