# AFLOW.org Repositories
# Mg1O6Ta2   [TET,TET,tP18] (STD_PRIM doi:
data_Mg1O6Ta2
_pd_phase_name Mg1O6Ta2
_cell_length_a  4.7873412044
_cell_length_b  4.7873412044
_cell_length_c  9.3095860082
_cell_angle_alpha  90.0000000000
_cell_angle_beta  90.0000000000
_cell_angle_gamma  90.0000000000
_symmetry_space_group_name_H-M  'P1'
_symmetry_Int_Tables_Number  1
loop_
_symmetry_equiv_pos_site_id
_symmetry_equiv_pos_as_xyz
  1  x,y,z
loop_
 _atom_site_label
 _atom_site_occupancy
 _atom_site_fract_x
 _atom_site_fract_y
 _atom_site_fract_z
 _atom_site_thermal_displace_type
 _atom_site_B_iso_or_equiv
 _atom_site_type_symbol
Mg1 1.0000000000 0.0000000000 0.0000000000 0.0000000000  Biso 1.0 Mg
Mg2 1.0000000000 0.5000000000 0.5000000000 0.5000000000  Biso 1.0 Mg
O3 1.0000000000 0.3109456963 0.3109456963 0.0000000000  Biso 1.0 O
O4 1.0000000000 0.6890543037 0.6890543037 0.0000000000  Biso 1.0 O
O5 1.0000000000 0.1890543037 0.8109456963 0.5000000000  Biso 1.0 O
O6 1.0000000000 0.8109456963 0.1890543037 0.5000000000  Biso 1.0 O
O7 1.0000000000 0.2977597316 0.2977597316 0.3241889156  Biso 1.0 O
O8 1.0000000000 0.7022402684 0.7022402684 0.3241889156  Biso 1.0 O
O9 1.0000000000 0.2022402684 0.7977597316 0.8241889156  Biso 1.0 O
O10 1.0000000000 0.7977597316 0.2022402684 0.8241889156  Biso 1.0 O
O11 1.0000000000 0.2022402684 0.7977597316 0.1758110844  Biso 1.0 O
O12 1.0000000000 0.7977597316 0.2022402684 0.1758110844  Biso 1.0 O
O13 1.0000000000 0.2977597316 0.2977597316 0.6758110844  Biso 1.0 O
O14 1.0000000000 0.7022402684 0.7022402684 0.6758110844  Biso 1.0 O
Ta15 1.0000000000 0.0000000000 0.0000000000 0.3320542249  Biso 1.0 Ta
Ta16 1.0000000000 0.5000000000 0.5000000000 0.8320542249  Biso 1.0 Ta
Ta17 1.0000000000 0.5000000000 0.5000000000 0.1679457751  Biso 1.0 Ta
Ta18 1.0000000000 0.0000000000 0.0000000000 0.6679457751  Biso 1.0 Ta
