# AFLOW.org Repositories
# Mg1O6Sb2   [TET,TET,tP18] (STD_PRIM doi:
data_Mg1O6Sb2
_pd_phase_name Mg1O6Sb2
_cell_length_a  4.7274197211
_cell_length_b  4.7274197211
_cell_length_c  9.3868579394
_cell_angle_alpha  90.0000000000
_cell_angle_beta  90.0000000000
_cell_angle_gamma  90.0000000000
_symmetry_space_group_name_H-M  'P1'
_symmetry_Int_Tables_Number  1
loop_
_symmetry_equiv_pos_site_id
_symmetry_equiv_pos_as_xyz
  1  x,y,z
loop_
 _atom_site_label
 _atom_site_occupancy
 _atom_site_fract_x
 _atom_site_fract_y
 _atom_site_fract_z
 _atom_site_thermal_displace_type
 _atom_site_B_iso_or_equiv
 _atom_site_type_symbol
Mg1 1.0000000000 0.0000000000 0.0000000000 0.0000000000  Biso 1.0 Mg
Mg2 1.0000000000 0.5000000000 0.5000000000 0.5000000000  Biso 1.0 Mg
O3 1.0000000000 0.3101914992 0.3101914992 0.0000000000  Biso 1.0 O
O4 1.0000000000 0.6898085008 0.6898085008 0.0000000000  Biso 1.0 O
O5 1.0000000000 0.1898085008 0.8101914992 0.5000000000  Biso 1.0 O
O6 1.0000000000 0.8101914992 0.1898085008 0.5000000000  Biso 1.0 O
O7 1.0000000000 0.3024797619 0.3024797619 0.3285484282  Biso 1.0 O
O8 1.0000000000 0.6975202381 0.6975202381 0.3285484282  Biso 1.0 O
O9 1.0000000000 0.1975202381 0.8024797619 0.8285484282  Biso 1.0 O
O10 1.0000000000 0.8024797619 0.1975202381 0.8285484282  Biso 1.0 O
O11 1.0000000000 0.1975202381 0.8024797619 0.1714515718  Biso 1.0 O
O12 1.0000000000 0.8024797619 0.1975202381 0.1714515718  Biso 1.0 O
O13 1.0000000000 0.3024797619 0.3024797619 0.6714515718  Biso 1.0 O
O14 1.0000000000 0.6975202381 0.6975202381 0.6714515718  Biso 1.0 O
Sb15 1.0000000000 0.0000000000 0.0000000000 0.3323909898  Biso 1.0 Sb
Sb16 1.0000000000 0.5000000000 0.5000000000 0.8323909898  Biso 1.0 Sb
Sb17 1.0000000000 0.5000000000 0.5000000000 0.1676090102  Biso 1.0 Sb
Sb18 1.0000000000 0.0000000000 0.0000000000 0.6676090102  Biso 1.0 Sb
