# AFLOW.org Repositories
# Mg1S4Sc2   [FCC,FCC,cF56] (STD_PRIM doi:
data_Mg1S4Sc2
_pd_phase_name Mg1S4Sc2
_cell_length_a  7.6253822567
_cell_length_b  7.6253822567
_cell_length_c  7.6253822567
_cell_angle_alpha  60.0000000000
_cell_angle_beta  60.0000000000
_cell_angle_gamma  60.0000000000
_symmetry_space_group_name_H-M  'P1'
_symmetry_Int_Tables_Number  1
loop_
_symmetry_equiv_pos_site_id
_symmetry_equiv_pos_as_xyz
  1  x,y,z
loop_
 _atom_site_label
 _atom_site_occupancy
 _atom_site_fract_x
 _atom_site_fract_y
 _atom_site_fract_z
 _atom_site_thermal_displace_type
 _atom_site_B_iso_or_equiv
 _atom_site_type_symbol
Mg1 1.0000000000 0.0000000000 0.0000000000 0.0000000000  Biso 1.0 Mg
Mg2 1.0000000000 0.7500000000 0.7500000000 0.7500000000  Biso 1.0 Mg
S3 1.0000000000 0.6177080004 0.6177080004 0.1468759988  Biso 1.0 S
S4 1.0000000000 0.1468759988 0.6177080004 0.6177080004  Biso 1.0 S
S5 1.0000000000 0.6177080004 0.6177080004 0.6177080004  Biso 1.0 S
S6 1.0000000000 0.6177080004 0.1468759988 0.6177080004  Biso 1.0 S
S7 1.0000000000 0.6031240012 0.1322919996 0.1322919996  Biso 1.0 S
S8 1.0000000000 0.1322919996 0.1322919996 0.6031240012  Biso 1.0 S
S9 1.0000000000 0.1322919996 0.1322919996 0.1322919996  Biso 1.0 S
S10 1.0000000000 0.1322919996 0.6031240012 0.1322919996  Biso 1.0 S
Sc11 1.0000000000 0.3750000000 0.3750000000 0.8750000000  Biso 1.0 Sc
Sc12 1.0000000000 0.8750000000 0.3750000000 0.3750000000  Biso 1.0 Sc
Sc13 1.0000000000 0.3750000000 0.3750000000 0.3750000000  Biso 1.0 Sc
Sc14 1.0000000000 0.3750000000 0.8750000000 0.3750000000  Biso 1.0 Sc
