# AFLOW.org Repositories
# Mg2O4Si1   [FCC,FCC,cF56] (STD_PRIM doi:
data_Mg2O4Si1
_pd_phase_name Mg2O4Si1
_cell_length_a  5.7633282318
_cell_length_b  5.7633282318
_cell_length_c  5.7633282318
_cell_angle_alpha  60.0000000000
_cell_angle_beta  60.0000000000
_cell_angle_gamma  60.0000000000
_symmetry_space_group_name_H-M  'P1'
_symmetry_Int_Tables_Number  1
loop_
_symmetry_equiv_pos_site_id
_symmetry_equiv_pos_as_xyz
  1  x,y,z
loop_
 _atom_site_label
 _atom_site_occupancy
 _atom_site_fract_x
 _atom_site_fract_y
 _atom_site_fract_z
 _atom_site_thermal_displace_type
 _atom_site_B_iso_or_equiv
 _atom_site_type_symbol
Mg1 1.0000000000 0.5000000000 0.5000000000 0.5000000000  Biso 1.0 Mg
Mg2 1.0000000000 0.0000000000 0.5000000000 0.0000000000  Biso 1.0 Mg
Mg3 1.0000000000 0.0000000000 0.0000000000 0.5000000000  Biso 1.0 Mg
Mg4 1.0000000000 0.0000000000 0.5000000000 0.5000000000  Biso 1.0 Mg
O5 1.0000000000 0.7322315679 0.7559228107 0.7559228107  Biso 1.0 O
O6 1.0000000000 0.2559228107 0.7559228107 0.2322315679  Biso 1.0 O
O7 1.0000000000 0.2559228107 0.2322315679 0.7559228107  Biso 1.0 O
O8 1.0000000000 0.2559228107 0.7559228107 0.7559228107  Biso 1.0 O
O9 1.0000000000 0.7440771893 0.2440771893 0.7677684321  Biso 1.0 O
O10 1.0000000000 0.2677684321 0.2440771893 0.2440771893  Biso 1.0 O
O11 1.0000000000 0.7440771893 0.7677684321 0.2440771893  Biso 1.0 O
O12 1.0000000000 0.7440771893 0.2440771893 0.2440771893  Biso 1.0 O
Si13 1.0000000000 0.3750000000 0.8750000000 0.8750000000  Biso 1.0 Si
Si14 1.0000000000 0.6250000000 0.1250000000 0.1250000000  Biso 1.0 Si
