# AFLOW.org Repositories
# Mg2Zn11   [CUB,CUB,cP39] (STD_PRIM doi:1
data_Mg2Zn11
_pd_phase_name Mg2Zn11
_cell_length_a  8.4477536055
_cell_length_b  8.4477536055
_cell_length_c  8.4477536055
_cell_angle_alpha  90.0000000000
_cell_angle_beta  90.0000000000
_cell_angle_gamma  90.0000000000
_symmetry_space_group_name_H-M  'P1'
_symmetry_Int_Tables_Number  1
loop_
_symmetry_equiv_pos_site_id
_symmetry_equiv_pos_as_xyz
  1  x,y,z
loop_
 _atom_site_label
 _atom_site_occupancy
 _atom_site_fract_x
 _atom_site_fract_y
 _atom_site_fract_z
 _atom_site_thermal_displace_type
 _atom_site_B_iso_or_equiv
 _atom_site_type_symbol
Mg1 1.0000000000 0.6982588268 0.0000000000 0.5000000000  Biso 1.0 Mg
Mg2 1.0000000000 0.3017411732 0.0000000000 0.5000000000  Biso 1.0 Mg
Mg3 1.0000000000 0.5000000000 0.6982588268 0.0000000000  Biso 1.0 Mg
Mg4 1.0000000000 0.5000000000 0.3017411732 0.0000000000  Biso 1.0 Mg
Mg5 1.0000000000 0.0000000000 0.5000000000 0.3017411732  Biso 1.0 Mg
Mg6 1.0000000000 0.0000000000 0.5000000000 0.6982588268  Biso 1.0 Mg
Zn7 1.0000000000 0.5000000000 0.5000000000 0.5000000000  Biso 1.0 Zn
Zn8 1.0000000000 0.7702496174 0.0000000000 0.0000000000  Biso 1.0 Zn
Zn9 1.0000000000 0.2297503826 0.0000000000 0.0000000000  Biso 1.0 Zn
Zn10 1.0000000000 0.0000000000 0.7702496174 0.0000000000  Biso 1.0 Zn
Zn11 1.0000000000 0.0000000000 0.2297503826 0.0000000000  Biso 1.0 Zn
Zn12 1.0000000000 0.0000000000 0.0000000000 0.2297503826  Biso 1.0 Zn
Zn13 1.0000000000 0.0000000000 0.0000000000 0.7702496174  Biso 1.0 Zn
Zn14 1.0000000000 0.8379609973 0.5000000000 0.0000000000  Biso 1.0 Zn
Zn15 1.0000000000 0.1620390027 0.5000000000 0.0000000000  Biso 1.0 Zn
Zn16 1.0000000000 0.0000000000 0.8379609973 0.5000000000  Biso 1.0 Zn
Zn17 1.0000000000 0.0000000000 0.1620390027 0.5000000000  Biso 1.0 Zn
Zn18 1.0000000000 0.5000000000 0.0000000000 0.1620390027  Biso 1.0 Zn
Zn19 1.0000000000 0.5000000000 0.0000000000 0.8379609973  Biso 1.0 Zn
Zn20 1.0000000000 0.7819865848 0.7819865848 0.2180134152  Biso 1.0 Zn
Zn21 1.0000000000 0.2180134152 0.2180134152 0.2180134152  Biso 1.0 Zn
Zn22 1.0000000000 0.2180134152 0.7819865848 0.7819865848  Biso 1.0 Zn
Zn23 1.0000000000 0.7819865848 0.2180134152 0.7819865848  Biso 1.0 Zn
Zn24 1.0000000000 0.2180134152 0.2180134152 0.7819865848  Biso 1.0 Zn
Zn25 1.0000000000 0.7819865848 0.7819865848 0.7819865848  Biso 1.0 Zn
Zn26 1.0000000000 0.7819865848 0.2180134152 0.2180134152  Biso 1.0 Zn
Zn27 1.0000000000 0.2180134152 0.7819865848 0.2180134152  Biso 1.0 Zn
Zn28 1.0000000000 0.5000000000 0.7623182568 0.3419967532  Biso 1.0 Zn
Zn29 1.0000000000 0.5000000000 0.2376817432 0.3419967532  Biso 1.0 Zn
Zn30 1.0000000000 0.5000000000 0.7623182568 0.6580032468  Biso 1.0 Zn
Zn31 1.0000000000 0.5000000000 0.2376817432 0.6580032468  Biso 1.0 Zn
Zn32 1.0000000000 0.6580032468 0.5000000000 0.2376817432  Biso 1.0 Zn
Zn33 1.0000000000 0.6580032468 0.5000000000 0.7623182568  Biso 1.0 Zn
Zn34 1.0000000000 0.3419967532 0.5000000000 0.2376817432  Biso 1.0 Zn
Zn35 1.0000000000 0.3419967532 0.5000000000 0.7623182568  Biso 1.0 Zn
Zn36 1.0000000000 0.7623182568 0.6580032468 0.5000000000  Biso 1.0 Zn
Zn37 1.0000000000 0.2376817432 0.6580032468 0.5000000000  Biso 1.0 Zn
Zn38 1.0000000000 0.7623182568 0.3419967532 0.5000000000  Biso 1.0 Zn
Zn39 1.0000000000 0.2376817432 0.3419967532 0.5000000000  Biso 1.0 Zn
