# AFLOW.org Repositories
# Mg3Ni2Ti1   [FCC,FCC,cF96] (STD_PRIM doi
data_Mg3Ni2Ti1
_pd_phase_name Mg3Ni2Ti1
_cell_length_a  8.2339285206
_cell_length_b  8.2339285206
_cell_length_c  8.2339285206
_cell_angle_alpha  60.0000000000
_cell_angle_beta  60.0000000000
_cell_angle_gamma  60.0000000000
_symmetry_space_group_name_H-M  'P1'
_symmetry_Int_Tables_Number  1
loop_
_symmetry_equiv_pos_site_id
_symmetry_equiv_pos_as_xyz
  1  x,y,z
loop_
 _atom_site_label
 _atom_site_occupancy
 _atom_site_fract_x
 _atom_site_fract_y
 _atom_site_fract_z
 _atom_site_thermal_displace_type
 _atom_site_B_iso_or_equiv
 _atom_site_type_symbol
Mg1 1.0000000000 0.3164069510 0.4335930490 0.8164069510  Biso 1.0 Mg
Mg2 1.0000000000 0.9335930490 0.8164069510 0.4335930490  Biso 1.0 Mg
Mg3 1.0000000000 0.3164069510 0.8164069510 0.4335930490  Biso 1.0 Mg
Mg4 1.0000000000 0.9335930490 0.4335930490 0.8164069510  Biso 1.0 Mg
Mg5 1.0000000000 0.3164069510 0.4335930490 0.4335930490  Biso 1.0 Mg
Mg6 1.0000000000 0.9335930490 0.8164069510 0.8164069510  Biso 1.0 Mg
Mg7 1.0000000000 0.0664069510 0.5664069510 0.1835930490  Biso 1.0 Mg
Mg8 1.0000000000 0.6835930490 0.1835930490 0.5664069510  Biso 1.0 Mg
Mg9 1.0000000000 0.0664069510 0.1835930490 0.5664069510  Biso 1.0 Mg
Mg10 1.0000000000 0.6835930490 0.5664069510 0.1835930490  Biso 1.0 Mg
Mg11 1.0000000000 0.6835930490 0.5664069510 0.5664069510  Biso 1.0 Mg
Mg12 1.0000000000 0.0664069510 0.1835930490 0.1835930490  Biso 1.0 Mg
Ni13 1.0000000000 0.3814401724 0.2061866092 0.2061866092  Biso 1.0 Ni
Ni14 1.0000000000 0.7061866092 0.2061866092 0.2061866092  Biso 1.0 Ni
Ni15 1.0000000000 0.7061866092 0.8814401724 0.2061866092  Biso 1.0 Ni
Ni16 1.0000000000 0.7061866092 0.2061866092 0.8814401724  Biso 1.0 Ni
Ni17 1.0000000000 0.2938133908 0.7938133908 0.7938133908  Biso 1.0 Ni
Ni18 1.0000000000 0.6185598276 0.7938133908 0.7938133908  Biso 1.0 Ni
Ni19 1.0000000000 0.2938133908 0.1185598276 0.7938133908  Biso 1.0 Ni
Ni20 1.0000000000 0.2938133908 0.7938133908 0.1185598276  Biso 1.0 Ni
Ti21 1.0000000000 0.0000000000 0.0000000000 0.0000000000  Biso 1.0 Ti
Ti22 1.0000000000 0.5000000000 0.0000000000 0.0000000000  Biso 1.0 Ti
Ti23 1.0000000000 0.5000000000 0.5000000000 0.0000000000  Biso 1.0 Ti
Ti24 1.0000000000 0.5000000000 0.0000000000 0.5000000000  Biso 1.0 Ti
