# AFLOW.org Repositories
# Mn1Na1O2   [ORC,ORC,oP8] (STD_PRIM doi:1
data_Mn1Na1O2
_pd_phase_name Mn1Na1O2
_cell_length_a  2.9222567767
_cell_length_b  4.8638774755
_cell_length_c  6.4099987452
_cell_angle_alpha  90.0000000000
_cell_angle_beta  90.0000000000
_cell_angle_gamma  90.0000000000
_symmetry_space_group_name_H-M  'P1'
_symmetry_Int_Tables_Number  1
loop_
_symmetry_equiv_pos_site_id
_symmetry_equiv_pos_as_xyz
  1  x,y,z
loop_
 _atom_site_label
 _atom_site_occupancy
 _atom_site_fract_x
 _atom_site_fract_y
 _atom_site_fract_z
 _atom_site_thermal_displace_type
 _atom_site_B_iso_or_equiv
 _atom_site_type_symbol
Mn1 1.0000000000 0.2500000000 0.2500000000 0.3752911941  Biso 1.0 Mn
Mn2 1.0000000000 0.7500000000 0.7500000000 0.6247088059  Biso 1.0 Mn
Na3 1.0000000000 0.2500000000 0.2500000000 0.8763141038  Biso 1.0 Na
Na4 1.0000000000 0.7500000000 0.7500000000 0.1236858962  Biso 1.0 Na
O5 1.0000000000 0.7500000000 0.2500000000 0.1709915694  Biso 1.0 O
O6 1.0000000000 0.2500000000 0.7500000000 0.8290084306  Biso 1.0 O
O7 1.0000000000 0.7500000000 0.2500000000 0.5824174840  Biso 1.0 O
O8 1.0000000000 0.2500000000 0.7500000000 0.4175825160  Biso 1.0 O
