# AFLOW.org Repositories
# Mn1O3Sr1   [HEX,HEX,hP20] (STD_PRIM doi:
data_Mn1O3Sr1
_pd_phase_name Mn1O3Sr1
_cell_length_a  5.5349787572
_cell_length_b  5.5349787572
_cell_length_c  9.2801775961
_cell_angle_alpha  90.0000000000
_cell_angle_beta  90.0000000000
_cell_angle_gamma  120.0000000000
_symmetry_space_group_name_H-M  'P1'
_symmetry_Int_Tables_Number  1
loop_
_symmetry_equiv_pos_site_id
_symmetry_equiv_pos_as_xyz
  1  x,y,z
loop_
 _atom_site_label
 _atom_site_occupancy
 _atom_site_fract_x
 _atom_site_fract_y
 _atom_site_fract_z
 _atom_site_thermal_displace_type
 _atom_site_B_iso_or_equiv
 _atom_site_type_symbol
Mn1 1.0000000000 0.3333324493 0.6666675507 0.6128317978  Biso 1.0 Mn
Mn2 1.0000000000 0.6666675507 0.3333324493 0.1128317978  Biso 1.0 Mn
Mn3 1.0000000000 0.6666675507 0.3333324493 0.3871682022  Biso 1.0 Mn
Mn4 1.0000000000 0.3333324493 0.6666675507 0.8871682022  Biso 1.0 Mn
O5 1.0000000000 0.5000000000 0.0000000000 0.0000000000  Biso 1.0 O
O6 1.0000000000 0.0000000000 0.5000000000 0.0000000000  Biso 1.0 O
O7 1.0000000000 0.5000000000 0.5000000000 0.0000000000  Biso 1.0 O
O8 1.0000000000 0.5000000000 0.0000000000 0.5000000000  Biso 1.0 O
O9 1.0000000000 0.0000000000 0.5000000000 0.5000000000  Biso 1.0 O
O10 1.0000000000 0.5000000000 0.5000000000 0.5000000000  Biso 1.0 O
O11 1.0000000000 0.8191253329 0.6382413444 0.2500000000  Biso 1.0 O
O12 1.0000000000 0.3617586556 0.1808746671 0.2500000000  Biso 1.0 O
O13 1.0000000000 0.8191244630 0.1808755370 0.2500000000  Biso 1.0 O
O14 1.0000000000 0.1808746671 0.3617586556 0.7500000000  Biso 1.0 O
O15 1.0000000000 0.6382413444 0.8191253329 0.7500000000  Biso 1.0 O
O16 1.0000000000 0.1808755370 0.8191244630 0.7500000000  Biso 1.0 O
Sr17 1.0000000000 0.0000000000 0.0000000000 0.0000000000  Biso 1.0 Sr
Sr18 1.0000000000 0.0000000000 0.0000000000 0.5000000000  Biso 1.0 Sr
Sr19 1.0000000000 0.3333217205 0.6666782795 0.2500000000  Biso 1.0 Sr
Sr20 1.0000000000 0.6666782795 0.3333217205 0.7500000000  Biso 1.0 Sr
