# AFLOW.org Repositories
# Mn2Si2Y1   [BCT,BCT2,tI10] (STD_PRIM doi
data_Mn2Si2Y1
_pd_phase_name Mn2Si2Y1
_cell_length_a  6.2190971268
_cell_length_b  6.2190971268
_cell_length_c  6.2190971268
_cell_angle_alpha  141.6051546757
_cell_angle_beta  141.6051546757
_cell_angle_gamma  55.4240158617
_symmetry_space_group_name_H-M  'P1'
_symmetry_Int_Tables_Number  1
loop_
_symmetry_equiv_pos_site_id
_symmetry_equiv_pos_as_xyz
  1  x,y,z
loop_
 _atom_site_label
 _atom_site_occupancy
 _atom_site_fract_x
 _atom_site_fract_y
 _atom_site_fract_z
 _atom_site_thermal_displace_type
 _atom_site_B_iso_or_equiv
 _atom_site_type_symbol
Mn1 1.0000000000 0.2500000000 0.7500000000 0.5000000000  Biso 1.0 Mn
Mn2 1.0000000000 0.7500000000 0.2500000000 0.5000000000  Biso 1.0 Mn
Si3 1.0000000000 0.6067300466 0.6067300466 0.0000000000  Biso 1.0 Si
Si4 1.0000000000 0.3932699534 0.3932699534 0.0000000000  Biso 1.0 Si
Y5 1.0000000000 0.0000000000 0.0000000000 0.0000000000  Biso 1.0 Y
