# AFLOW.org Repositories
# Mo1Na2O4   [FCC,FCC,cF56] (STD_PRIM doi:
data_Mo1Na2O4
_pd_phase_name Mo1Na2O4
_cell_length_a  6.5275225736
_cell_length_b  6.5275225736
_cell_length_c  6.5275225736
_cell_angle_alpha  60.0000000000
_cell_angle_beta  60.0000000000
_cell_angle_gamma  60.0000000000
_symmetry_space_group_name_H-M  'P1'
_symmetry_Int_Tables_Number  1
loop_
_symmetry_equiv_pos_site_id
_symmetry_equiv_pos_as_xyz
  1  x,y,z
loop_
 _atom_site_label
 _atom_site_occupancy
 _atom_site_fract_x
 _atom_site_fract_y
 _atom_site_fract_z
 _atom_site_thermal_displace_type
 _atom_site_B_iso_or_equiv
 _atom_site_type_symbol
Mo1 1.0000000000 0.3750000000 0.3750000000 0.8750000000  Biso 1.0 Mo
Mo2 1.0000000000 0.6250000000 0.6250000000 0.1250000000  Biso 1.0 Mo
Na3 1.0000000000 0.0000000000 0.0000000000 0.0000000000  Biso 1.0 Na
Na4 1.0000000000 0.0000000000 0.0000000000 0.5000000000  Biso 1.0 Na
Na5 1.0000000000 0.5000000000 0.0000000000 0.5000000000  Biso 1.0 Na
Na6 1.0000000000 0.0000000000 0.5000000000 0.5000000000  Biso 1.0 Na
O7 1.0000000000 0.2623460955 0.2623460955 0.2129617135  Biso 1.0 O
O8 1.0000000000 0.2623460955 0.2623460955 0.7623460955  Biso 1.0 O
O9 1.0000000000 0.7129617135 0.2623460955 0.7623460955  Biso 1.0 O
O10 1.0000000000 0.2623460955 0.7129617135 0.7623460955  Biso 1.0 O
O11 1.0000000000 0.7376539045 0.7376539045 0.2376539045  Biso 1.0 O
O12 1.0000000000 0.7376539045 0.7376539045 0.7870382865  Biso 1.0 O
O13 1.0000000000 0.2870382865 0.7376539045 0.2376539045  Biso 1.0 O
O14 1.0000000000 0.7376539045 0.2870382865 0.2376539045  Biso 1.0 O
