# AFLOW.org Repositories
# N1Tc3   [HEX,HEX,hP4] (STD_PRIM doi:10.1
data_N1Tc3
_pd_phase_name N1Tc3
_cell_length_a  2.8261267290
_cell_length_b  2.8261267290
_cell_length_c  7.0941360171
_cell_angle_alpha  90.0000000000
_cell_angle_beta  90.0000000000
_cell_angle_gamma  120.0000000000
_symmetry_space_group_name_H-M  'P1'
_symmetry_Int_Tables_Number  1
loop_
_symmetry_equiv_pos_site_id
_symmetry_equiv_pos_as_xyz
  1  x,y,z
loop_
 _atom_site_label
 _atom_site_occupancy
 _atom_site_fract_x
 _atom_site_fract_y
 _atom_site_fract_z
 _atom_site_thermal_displace_type
 _atom_site_B_iso_or_equiv
 _atom_site_type_symbol
N1 1.0000000000 0.6666733475 0.3333266525 0.0000000000  Biso 1.0 N
Tc2 1.0000000000 0.6666838144 0.3333161856 0.5000000000  Biso 1.0 Tc
Tc3 1.0000000000 0.3333214191 0.6666785809 0.1961700707  Biso 1.0 Tc
Tc4 1.0000000000 0.3333214191 0.6666785809 0.8038299293  Biso 1.0 Tc
