# AFLOW.org Repositories
# N1Ti2   [BCT,BCT2,tI12] (STD_PRIM doi:10
data_N1Ti2
_pd_phase_name N1Ti2
_cell_length_a  5.3932458804
_cell_length_b  5.3932458804
_cell_length_c  5.3932458804
_cell_angle_alpha  134.0259300139
_cell_angle_beta  134.0259300139
_cell_angle_gamma  67.0475107953
_symmetry_space_group_name_H-M  'P1'
_symmetry_Int_Tables_Number  1
loop_
_symmetry_equiv_pos_site_id
_symmetry_equiv_pos_as_xyz
  1  x,y,z
loop_
 _atom_site_label
 _atom_site_occupancy
 _atom_site_fract_x
 _atom_site_fract_y
 _atom_site_fract_z
 _atom_site_thermal_displace_type
 _atom_site_B_iso_or_equiv
 _atom_site_type_symbol
N1 1.0000000000 0.8750000000 0.6250000000 0.2500000000  Biso 1.0 N
N2 1.0000000000 0.1250000000 0.3750000000 0.7500000000  Biso 1.0 N
Ti3 1.0000000000 0.1086165702 0.8586165702 0.2500000000  Biso 1.0 Ti
Ti4 1.0000000000 0.3586165702 0.6086165702 0.7500000000  Biso 1.0 Ti
Ti5 1.0000000000 0.8913834298 0.1413834298 0.7500000000  Biso 1.0 Ti
Ti6 1.0000000000 0.6413834298 0.3913834298 0.2500000000  Biso 1.0 Ti
