# AFLOW.org Repositories
# N2Ni1O6   [CUB,CUB,cP36] (STD_PRIM doi:1
data_N2Ni1O6
_pd_phase_name N2Ni1O6
_cell_length_a  7.5281938463
_cell_length_b  7.5281938463
_cell_length_c  7.5281938463
_cell_angle_alpha  90.0000000000
_cell_angle_beta  90.0000000000
_cell_angle_gamma  90.0000000000
_symmetry_space_group_name_H-M  'P1'
_symmetry_Int_Tables_Number  1
loop_
_symmetry_equiv_pos_site_id
_symmetry_equiv_pos_as_xyz
  1  x,y,z
loop_
 _atom_site_label
 _atom_site_occupancy
 _atom_site_fract_x
 _atom_site_fract_y
 _atom_site_fract_z
 _atom_site_thermal_displace_type
 _atom_site_B_iso_or_equiv
 _atom_site_type_symbol
N1 1.0000000000 0.6757731931 0.6757731931 0.3242268069  Biso 1.0 N
N2 1.0000000000 0.8242268069 0.3242268069 0.8242268069  Biso 1.0 N
N3 1.0000000000 0.3242268069 0.1757731931 0.1757731931  Biso 1.0 N
N4 1.0000000000 0.1757731931 0.8242268069 0.6757731931  Biso 1.0 N
N5 1.0000000000 0.3242268069 0.3242268069 0.6757731931  Biso 1.0 N
N6 1.0000000000 0.1757731931 0.6757731931 0.1757731931  Biso 1.0 N
N7 1.0000000000 0.6757731931 0.8242268069 0.8242268069  Biso 1.0 N
N8 1.0000000000 0.8242268069 0.1757731931 0.3242268069  Biso 1.0 N
Ni9 1.0000000000 0.0000000000 0.0000000000 0.0000000000  Biso 1.0 Ni
Ni10 1.0000000000 0.5000000000 0.0000000000 0.5000000000  Biso 1.0 Ni
Ni11 1.0000000000 0.0000000000 0.5000000000 0.5000000000  Biso 1.0 Ni
Ni12 1.0000000000 0.5000000000 0.5000000000 0.0000000000  Biso 1.0 Ni
O13 1.0000000000 0.7935129374 0.6783696368 0.4438010830  Biso 1.0 O
O14 1.0000000000 0.7064870626 0.3216303632 0.9438010830  Biso 1.0 O
O15 1.0000000000 0.2064870626 0.1783696368 0.0561989170  Biso 1.0 O
O16 1.0000000000 0.2935129374 0.8216303632 0.5561989170  Biso 1.0 O
O17 1.0000000000 0.5561989170 0.7935129374 0.3216303632  Biso 1.0 O
O18 1.0000000000 0.0561989170 0.7064870626 0.6783696368  Biso 1.0 O
O19 1.0000000000 0.9438010830 0.2064870626 0.8216303632  Biso 1.0 O
O20 1.0000000000 0.4438010830 0.2935129374 0.1783696368  Biso 1.0 O
O21 1.0000000000 0.6783696368 0.5561989170 0.2064870626  Biso 1.0 O
O22 1.0000000000 0.3216303632 0.0561989170 0.2935129374  Biso 1.0 O
O23 1.0000000000 0.1783696368 0.9438010830 0.7935129374  Biso 1.0 O
O24 1.0000000000 0.8216303632 0.4438010830 0.7064870626  Biso 1.0 O
O25 1.0000000000 0.2064870626 0.3216303632 0.5561989170  Biso 1.0 O
O26 1.0000000000 0.2935129374 0.6783696368 0.0561989170  Biso 1.0 O
O27 1.0000000000 0.7935129374 0.8216303632 0.9438010830  Biso 1.0 O
O28 1.0000000000 0.7064870626 0.1783696368 0.4438010830  Biso 1.0 O
O29 1.0000000000 0.4438010830 0.2064870626 0.6783696368  Biso 1.0 O
O30 1.0000000000 0.9438010830 0.2935129374 0.3216303632  Biso 1.0 O
O31 1.0000000000 0.0561989170 0.7935129374 0.1783696368  Biso 1.0 O
O32 1.0000000000 0.5561989170 0.7064870626 0.8216303632  Biso 1.0 O
O33 1.0000000000 0.3216303632 0.4438010830 0.7935129374  Biso 1.0 O
O34 1.0000000000 0.6783696368 0.9438010830 0.7064870626  Biso 1.0 O
O35 1.0000000000 0.8216303632 0.0561989170 0.2064870626  Biso 1.0 O
O36 1.0000000000 0.1783696368 0.5561989170 0.2935129374  Biso 1.0 O
