# AFLOW.org Repositories
# N2Ru1   [ORC,ORC,oP6] (STD_PRIM doi:10.1
data_N2Ru1
_pd_phase_name N2Ru1
_cell_length_a  2.7637202683
_cell_length_b  4.0825019155
_cell_length_c  4.9524594623
_cell_angle_alpha  90.0000000000
_cell_angle_beta  90.0000000000
_cell_angle_gamma  90.0000000000
_symmetry_space_group_name_H-M  'P1'
_symmetry_Int_Tables_Number  1
loop_
_symmetry_equiv_pos_site_id
_symmetry_equiv_pos_as_xyz
  1  x,y,z
loop_
 _atom_site_label
 _atom_site_occupancy
 _atom_site_fract_x
 _atom_site_fract_y
 _atom_site_fract_z
 _atom_site_thermal_displace_type
 _atom_site_B_iso_or_equiv
 _atom_site_type_symbol
N1 1.0000000000 0.0000000000 0.1214718211 0.5873523545  Biso 1.0 N
N2 1.0000000000 0.0000000000 0.8785281789 0.4126476455  Biso 1.0 N
N3 1.0000000000 0.5000000000 0.3785281789 0.0873523545  Biso 1.0 N
N4 1.0000000000 0.5000000000 0.6214718211 0.9126476455  Biso 1.0 N
Ru5 1.0000000000 0.0000000000 0.0000000000 0.0000000000  Biso 1.0 Ru
Ru6 1.0000000000 0.5000000000 0.5000000000 0.5000000000  Biso 1.0 Ru
