# AFLOW.org Repositories
# N2Zn3   [BCC,BCC,cI80] (STD_PRIM doi:10.
data_N2Zn3
_pd_phase_name N2Zn3
_cell_length_a  8.2950095094
_cell_length_b  8.2950095094
_cell_length_c  8.2950095094
_cell_angle_alpha  109.4712206345
_cell_angle_beta  109.4712206345
_cell_angle_gamma  109.4712206345
_symmetry_space_group_name_H-M  'P1'
_symmetry_Int_Tables_Number  1
loop_
_symmetry_equiv_pos_site_id
_symmetry_equiv_pos_as_xyz
  1  x,y,z
loop_
 _atom_site_label
 _atom_site_occupancy
 _atom_site_fract_x
 _atom_site_fract_y
 _atom_site_fract_z
 _atom_site_thermal_displace_type
 _atom_site_B_iso_or_equiv
 _atom_site_type_symbol
N1 1.0000000000 0.0000000000 0.5000000000 0.0000000000  Biso 1.0 N
N2 1.0000000000 0.0000000000 0.0000000000 0.5000000000  Biso 1.0 N
N3 1.0000000000 0.5000000000 0.5000000000 0.5000000000  Biso 1.0 N
N4 1.0000000000 0.5000000000 0.0000000000 0.0000000000  Biso 1.0 N
N5 1.0000000000 0.7500000000 0.9780217122 0.7280217122  Biso 1.0 N
N6 1.0000000000 0.2500000000 0.5219782878 0.7719782878  Biso 1.0 N
N7 1.0000000000 0.9780217122 0.2280217122 0.2500000000  Biso 1.0 N
N8 1.0000000000 0.5219782878 0.2719782878 0.7500000000  Biso 1.0 N
N9 1.0000000000 0.2719782878 0.2500000000 0.0219782878  Biso 1.0 N
N10 1.0000000000 0.2280217122 0.7500000000 0.4780217122  Biso 1.0 N
N11 1.0000000000 0.2500000000 0.0219782878 0.2719782878  Biso 1.0 N
N12 1.0000000000 0.7500000000 0.4780217122 0.2280217122  Biso 1.0 N
N13 1.0000000000 0.0219782878 0.7719782878 0.7500000000  Biso 1.0 N
N14 1.0000000000 0.4780217122 0.7280217122 0.2500000000  Biso 1.0 N
N15 1.0000000000 0.7280217122 0.7500000000 0.9780217122  Biso 1.0 N
N16 1.0000000000 0.7719782878 0.2500000000 0.5219782878  Biso 1.0 N
Zn17 1.0000000000 0.7737482371 0.5447286657 0.0188429735  Biso 1.0 Zn
Zn18 1.0000000000 0.9741143078 0.9552713343 0.2290195714  Biso 1.0 Zn
Zn19 1.0000000000 0.5258856922 0.2549052636 0.4811570265  Biso 1.0 Zn
Zn20 1.0000000000 0.7262517629 0.2450947364 0.2709804286  Biso 1.0 Zn
Zn21 1.0000000000 0.2450947364 0.7709804286 0.2262517629  Biso 1.0 Zn
Zn22 1.0000000000 0.2549052636 0.9811570265 0.0258856922  Biso 1.0 Zn
Zn23 1.0000000000 0.9552713343 0.7290195714 0.4741143078  Biso 1.0 Zn
Zn24 1.0000000000 0.5447286657 0.5188429735 0.2737482371  Biso 1.0 Zn
Zn25 1.0000000000 0.9811570265 0.5258856922 0.7549052636  Biso 1.0 Zn
Zn26 1.0000000000 0.7709804286 0.7262517629 0.7450947364  Biso 1.0 Zn
Zn27 1.0000000000 0.5188429735 0.7737482371 0.0447286657  Biso 1.0 Zn
Zn28 1.0000000000 0.7290195714 0.9741143078 0.4552713343  Biso 1.0 Zn
Zn29 1.0000000000 0.2262517629 0.4552713343 0.9811570265  Biso 1.0 Zn
Zn30 1.0000000000 0.0258856922 0.0447286657 0.7709804286  Biso 1.0 Zn
Zn31 1.0000000000 0.4741143078 0.7450947364 0.5188429735  Biso 1.0 Zn
Zn32 1.0000000000 0.2737482371 0.7549052636 0.7290195714  Biso 1.0 Zn
Zn33 1.0000000000 0.7549052636 0.2290195714 0.7737482371  Biso 1.0 Zn
Zn34 1.0000000000 0.7450947364 0.0188429735 0.9741143078  Biso 1.0 Zn
Zn35 1.0000000000 0.0447286657 0.2709804286 0.5258856922  Biso 1.0 Zn
Zn36 1.0000000000 0.4552713343 0.4811570265 0.7262517629  Biso 1.0 Zn
Zn37 1.0000000000 0.0188429735 0.4741143078 0.2450947364  Biso 1.0 Zn
Zn38 1.0000000000 0.2290195714 0.2737482371 0.2549052636  Biso 1.0 Zn
Zn39 1.0000000000 0.4811570265 0.2262517629 0.9552713343  Biso 1.0 Zn
Zn40 1.0000000000 0.2709804286 0.0258856922 0.5447286657  Biso 1.0 Zn
