# AFLOW.org Repositories
# N6Ta5   [HEX,HEX,hP22] (STD_PRIM doi:10.
data_N6Ta5
_pd_phase_name N6Ta5
_cell_length_a  5.2495518616
_cell_length_b  5.2495518616
_cell_length_c  10.5273086891
_cell_angle_alpha  90.0000000000
_cell_angle_beta  90.0000000000
_cell_angle_gamma  120.0000000000
_symmetry_space_group_name_H-M  'P1'
_symmetry_Int_Tables_Number  1
loop_
_symmetry_equiv_pos_site_id
_symmetry_equiv_pos_as_xyz
  1  x,y,z
loop_
 _atom_site_label
 _atom_site_occupancy
 _atom_site_fract_x
 _atom_site_fract_y
 _atom_site_fract_z
 _atom_site_thermal_displace_type
 _atom_site_B_iso_or_equiv
 _atom_site_type_symbol
N1 1.0000000000 0.6589016572 0.6589016572 0.6216312896  Biso 1.0 N
N2 1.0000000000 0.3410985252 0.0000000000 0.6216312896  Biso 1.0 N
N3 1.0000000000 0.0000000000 0.3411126730 0.6216272865  Biso 1.0 N
N4 1.0000000000 0.3410983428 0.3410983428 0.1216312896  Biso 1.0 N
N5 1.0000000000 0.6589014748 0.0000000000 0.1216312896  Biso 1.0 N
N6 1.0000000000 0.0000000000 0.6588873270 0.1216272865  Biso 1.0 N
N7 1.0000000000 0.3410985252 0.0000000000 0.8783687104  Biso 1.0 N
N8 1.0000000000 0.6589016572 0.6589016572 0.8783687104  Biso 1.0 N
N9 1.0000000000 0.0000000000 0.3411126730 0.8783727135  Biso 1.0 N
N10 1.0000000000 0.6589014748 0.0000000000 0.3783687104  Biso 1.0 N
N11 1.0000000000 0.3410983428 0.3410983428 0.3783687104  Biso 1.0 N
N12 1.0000000000 0.0000000000 0.6588873270 0.3783727135  Biso 1.0 N
Ta13 1.0000000000 0.3333516985 0.6666758493 0.0000000000  Biso 1.0 Ta
Ta14 1.0000000000 0.6666483015 0.3333241507 0.5000000000  Biso 1.0 Ta
Ta15 1.0000000000 0.6666483015 0.3333241507 0.0000000000  Biso 1.0 Ta
Ta16 1.0000000000 0.3333516985 0.6666758493 0.5000000000  Biso 1.0 Ta
Ta17 1.0000000000 0.6763797902 0.6763797902 0.2500000000  Biso 1.0 Ta
Ta18 1.0000000000 0.3236237978 0.0000000000 0.2500000000  Biso 1.0 Ta
Ta19 1.0000000000 0.0000000000 0.3236195552 0.2500000000  Biso 1.0 Ta
Ta20 1.0000000000 0.3236202098 0.3236202098 0.7500000000  Biso 1.0 Ta
Ta21 1.0000000000 0.6763762022 0.0000000000 0.7500000000  Biso 1.0 Ta
Ta22 1.0000000000 0.0000000000 0.6763804448 0.7500000000  Biso 1.0 Ta
