# AFLOW.org Repositories
# Na1P1Sr1   [HEX,HEX,hP9] (STD_PRIM doi:1
data_Na1P1Sr1
_pd_phase_name Na1P1Sr1
_cell_length_a  7.6869822077
_cell_length_b  7.6869822077
_cell_length_c  4.4951210335
_cell_angle_alpha  90.0000000000
_cell_angle_beta  90.0000000000
_cell_angle_gamma  120.0000000000
_symmetry_space_group_name_H-M  'P1'
_symmetry_Int_Tables_Number  1
loop_
_symmetry_equiv_pos_site_id
_symmetry_equiv_pos_as_xyz
  1  x,y,z
loop_
 _atom_site_label
 _atom_site_occupancy
 _atom_site_fract_x
 _atom_site_fract_y
 _atom_site_fract_z
 _atom_site_thermal_displace_type
 _atom_site_B_iso_or_equiv
 _atom_site_type_symbol
Na1 1.0000000000 0.2416431084 0.2416431084 0.0000000000  Biso 1.0 Na
Na2 1.0000000000 0.7583553046 0.0000000000 0.0000000000  Biso 1.0 Na
Na3 1.0000000000 0.0000000000 0.7583532610 0.0000000000  Biso 1.0 Na
P4 1.0000000000 0.6666314703 0.3333144538 0.0000000000  Biso 1.0 P
P5 1.0000000000 0.3333685297 0.6666829835 0.0000000000  Biso 1.0 P
P6 1.0000000000 0.0000000000 0.0000000000 0.5000000000  Biso 1.0 P
Sr7 1.0000000000 0.5845035322 0.5845035322 0.5000000000  Biso 1.0 Sr
Sr8 1.0000000000 0.4154961734 0.0000000000 0.5000000000  Biso 1.0 Sr
Sr9 1.0000000000 0.0000000000 0.4154976184 0.5000000000  Biso 1.0 Sr
