# AFLOW.org Repositories
# Na1S1   [HEX,HEX,hP8] (STD_PRIM doi:10.1
data_Na1S1
_pd_phase_name Na1S1
_cell_length_a  4.4945019605
_cell_length_b  4.4945019605
_cell_length_c  10.2587928023
_cell_angle_alpha  90.0000000000
_cell_angle_beta  90.0000000000
_cell_angle_gamma  120.0000000000
_symmetry_space_group_name_H-M  'P1'
_symmetry_Int_Tables_Number  1
loop_
_symmetry_equiv_pos_site_id
_symmetry_equiv_pos_as_xyz
  1  x,y,z
loop_
 _atom_site_label
 _atom_site_occupancy
 _atom_site_fract_x
 _atom_site_fract_y
 _atom_site_fract_z
 _atom_site_thermal_displace_type
 _atom_site_B_iso_or_equiv
 _atom_site_type_symbol
Na1 1.0000000000 0.0000000000 0.0000000000 0.0000000000  Biso 1.0 Na
Na2 1.0000000000 0.0000000000 0.0000000000 0.5000000000  Biso 1.0 Na
Na3 1.0000000000 0.3333900198 0.6666950099 0.2500000000  Biso 1.0 Na
Na4 1.0000000000 0.6666099802 0.3333049901 0.7500000000  Biso 1.0 Na
S5 1.0000000000 0.3333941346 0.6666970673 0.6444096169  Biso 1.0 S
S6 1.0000000000 0.6666058654 0.3333029327 0.1444096169  Biso 1.0 S
S7 1.0000000000 0.6666058654 0.3333029327 0.3555903831  Biso 1.0 S
S8 1.0000000000 0.3333941346 0.6666970673 0.8555903831  Biso 1.0 S
