# AFLOW.org Repositories
# Nb1O2   [TET,TET,tP6] (STD_PRIM doi:10.1
data_Nb1O2
_pd_phase_name Nb1O2
_cell_length_a  4.9899121856
_cell_length_b  4.9899121856
_cell_length_c  2.9121425029
_cell_angle_alpha  90.0000000000
_cell_angle_beta  90.0000000000
_cell_angle_gamma  90.0000000000
_symmetry_space_group_name_H-M  'P1'
_symmetry_Int_Tables_Number  1
loop_
_symmetry_equiv_pos_site_id
_symmetry_equiv_pos_as_xyz
  1  x,y,z
loop_
 _atom_site_label
 _atom_site_occupancy
 _atom_site_fract_x
 _atom_site_fract_y
 _atom_site_fract_z
 _atom_site_thermal_displace_type
 _atom_site_B_iso_or_equiv
 _atom_site_type_symbol
Nb1 1.0000000000 0.0000000000 0.0000000000 0.0000000000  Biso 1.0 Nb
Nb2 1.0000000000 0.5000000000 0.5000000000 0.5000000000  Biso 1.0 Nb
O3 1.0000000000 0.2871153707 0.2871153707 0.0000000000  Biso 1.0 O
O4 1.0000000000 0.7128846293 0.7128846293 0.0000000000  Biso 1.0 O
O5 1.0000000000 0.2128846293 0.7871153707 0.5000000000  Biso 1.0 O
O6 1.0000000000 0.7871153707 0.2128846293 0.5000000000  Biso 1.0 O
