# AFLOW.org Repositories
# Nb1Pd2   [ORCI,ORCI,oI6] (STD_PRIM doi:1
data_Nb1Pd2
_pd_phase_name Nb1Pd2
_cell_length_a  4.8772459691
_cell_length_b  4.8772459691
_cell_length_c  4.8772459691
_cell_angle_alpha  145.6326898592
_cell_angle_beta  132.8983476867
_cell_angle_gamma  59.5932451028
_symmetry_space_group_name_H-M  'P1'
_symmetry_Int_Tables_Number  1
loop_
_symmetry_equiv_pos_site_id
_symmetry_equiv_pos_as_xyz
  1  x,y,z
loop_
 _atom_site_label
 _atom_site_occupancy
 _atom_site_fract_x
 _atom_site_fract_y
 _atom_site_fract_z
 _atom_site_thermal_displace_type
 _atom_site_B_iso_or_equiv
 _atom_site_type_symbol
Nb1 1.0000000000 0.0000000000 0.0000000000 0.0000000000  Biso 1.0 Nb
Pd2 1.0000000000 0.6658063795 0.6658063795 0.0000000000  Biso 1.0 Pd
Pd3 1.0000000000 0.3341936205 0.3341936205 0.0000000000  Biso 1.0 Pd
