# AFLOW.org Repositories
# Nb2O6Zn1   [ORC,ORC,oP36] (STD_PRIM doi:
data_Nb2O6Zn1
_pd_phase_name Nb2O6Zn1
_cell_length_a  5.0560253048
_cell_length_b  5.7612818637
_cell_length_c  14.2331374011
_cell_angle_alpha  90.0000000000
_cell_angle_beta  90.0000000000
_cell_angle_gamma  90.0000000000
_symmetry_space_group_name_H-M  'P1'
_symmetry_Int_Tables_Number  1
loop_
_symmetry_equiv_pos_site_id
_symmetry_equiv_pos_as_xyz
  1  x,y,z
loop_
 _atom_site_label
 _atom_site_occupancy
 _atom_site_fract_x
 _atom_site_fract_y
 _atom_site_fract_z
 _atom_site_thermal_displace_type
 _atom_site_B_iso_or_equiv
 _atom_site_type_symbol
Nb1 1.0000000000 0.7479626238 0.8192088067 0.1590760495  Biso 1.0 Nb
Nb2 1.0000000000 0.2479626238 0.6807911933 0.3409239505  Biso 1.0 Nb
Nb3 1.0000000000 0.7520373762 0.8192088067 0.8409239505  Biso 1.0 Nb
Nb4 1.0000000000 0.2520373762 0.6807911933 0.6590760495  Biso 1.0 Nb
Nb5 1.0000000000 0.2520373762 0.1807911933 0.8409239505  Biso 1.0 Nb
Nb6 1.0000000000 0.7520373762 0.3192088067 0.6590760495  Biso 1.0 Nb
Nb7 1.0000000000 0.2479626238 0.1807911933 0.1590760495  Biso 1.0 Nb
Nb8 1.0000000000 0.7479626238 0.3192088067 0.3409239505  Biso 1.0 Nb
O9 1.0000000000 0.0763161430 0.8922795317 0.0948990143  Biso 1.0 O
O10 1.0000000000 0.5763161430 0.6077204683 0.4051009857  Biso 1.0 O
O11 1.0000000000 0.4236838570 0.8922795317 0.9051009857  Biso 1.0 O
O12 1.0000000000 0.9236838570 0.6077204683 0.5948990143  Biso 1.0 O
O13 1.0000000000 0.9236838570 0.1077204683 0.9051009857  Biso 1.0 O
O14 1.0000000000 0.4236838570 0.3922795317 0.5948990143  Biso 1.0 O
O15 1.0000000000 0.5763161430 0.1077204683 0.0948990143  Biso 1.0 O
O16 1.0000000000 0.0763161430 0.3922795317 0.4051009857  Biso 1.0 O
O17 1.0000000000 0.0848539076 0.8823612952 0.4218220087  Biso 1.0 O
O18 1.0000000000 0.5848539076 0.6176387048 0.0781779913  Biso 1.0 O
O19 1.0000000000 0.4151460924 0.8823612952 0.5781779913  Biso 1.0 O
O20 1.0000000000 0.9151460924 0.6176387048 0.9218220087  Biso 1.0 O
O21 1.0000000000 0.9151460924 0.1176387048 0.5781779913  Biso 1.0 O
O22 1.0000000000 0.4151460924 0.3823612952 0.9218220087  Biso 1.0 O
O23 1.0000000000 0.5848539076 0.1176387048 0.4218220087  Biso 1.0 O
O24 1.0000000000 0.0848539076 0.3823612952 0.0781779913  Biso 1.0 O
O25 1.0000000000 0.0791091122 0.8763468209 0.7556691945  Biso 1.0 O
O26 1.0000000000 0.5791091122 0.6236531791 0.7443308055  Biso 1.0 O
O27 1.0000000000 0.4208908878 0.8763468209 0.2443308055  Biso 1.0 O
O28 1.0000000000 0.9208908878 0.6236531791 0.2556691945  Biso 1.0 O
O29 1.0000000000 0.9208908878 0.1236531791 0.2443308055  Biso 1.0 O
O30 1.0000000000 0.4208908878 0.3763468209 0.2556691945  Biso 1.0 O
O31 1.0000000000 0.5791091122 0.1236531791 0.7556691945  Biso 1.0 O
O32 1.0000000000 0.0791091122 0.3763468209 0.7443308055  Biso 1.0 O
Zn33 1.0000000000 0.2500000000 0.6619851416 0.0000000000  Biso 1.0 Zn
Zn34 1.0000000000 0.7500000000 0.8380148584 0.5000000000  Biso 1.0 Zn
Zn35 1.0000000000 0.7500000000 0.3380148584 0.0000000000  Biso 1.0 Zn
Zn36 1.0000000000 0.2500000000 0.1619851416 0.5000000000  Biso 1.0 Zn
