# AFLOW.org Repositories
# Ni2O4Si1   [FCC,FCC,cF56] (STD_PRIM doi:
data_Ni2O4Si1
_pd_phase_name Ni2O4Si1
_cell_length_a  5.7400611311
_cell_length_b  5.7400611311
_cell_length_c  5.7400611311
_cell_angle_alpha  60.0000000000
_cell_angle_beta  60.0000000000
_cell_angle_gamma  60.0000000000
_symmetry_space_group_name_H-M  'P1'
_symmetry_Int_Tables_Number  1
loop_
_symmetry_equiv_pos_site_id
_symmetry_equiv_pos_as_xyz
  1  x,y,z
loop_
 _atom_site_label
 _atom_site_occupancy
 _atom_site_fract_x
 _atom_site_fract_y
 _atom_site_fract_z
 _atom_site_thermal_displace_type
 _atom_site_B_iso_or_equiv
 _atom_site_type_symbol
Ni1 1.0000000000 0.5000000000 0.5000000000 0.5000000000  Biso 1.0 Ni
Ni2 1.0000000000 0.0000000000 0.5000000000 0.5000000000  Biso 1.0 Ni
Ni3 1.0000000000 0.5000000000 0.5000000000 0.0000000000  Biso 1.0 Ni
Ni4 1.0000000000 0.5000000000 0.0000000000 0.5000000000  Biso 1.0 Ni
O5 1.0000000000 0.2438820459 0.2438820459 0.2438820459  Biso 1.0 O
O6 1.0000000000 0.7683538624 0.2438820459 0.2438820459  Biso 1.0 O
O7 1.0000000000 0.2438820459 0.2438820459 0.7683538624  Biso 1.0 O
O8 1.0000000000 0.2438820459 0.7683538624 0.2438820459  Biso 1.0 O
O9 1.0000000000 0.2316461376 0.7561179541 0.7561179541  Biso 1.0 O
O10 1.0000000000 0.7561179541 0.7561179541 0.7561179541  Biso 1.0 O
O11 1.0000000000 0.7561179541 0.7561179541 0.2316461376  Biso 1.0 O
O12 1.0000000000 0.7561179541 0.2316461376 0.7561179541  Biso 1.0 O
Si13 1.0000000000 0.1250000000 0.1250000000 0.1250000000  Biso 1.0 Si
Si14 1.0000000000 0.8750000000 0.8750000000 0.8750000000  Biso 1.0 Si
