# AFLOW.org Repositories
# O2Pa1   [CUB,CUB,cP12] (STD_PRIM doi:10.
data_O2Pa1
_pd_phase_name O2Pa1
_cell_length_a  3.8593796312
_cell_length_b  3.8593796312
_cell_length_c  3.8593796312
_cell_angle_alpha  60.0000000000
_cell_angle_beta  60.0000000000
_cell_angle_gamma  60.0000000000
_symmetry_space_group_name_H-M  'P1'
_symmetry_Int_Tables_Number  1
loop_
_symmetry_equiv_pos_site_id
_symmetry_equiv_pos_as_xyz
  1  x,y,z
loop_
 _atom_site_label
 _atom_site_occupancy
 _atom_site_fract_x
 _atom_site_fract_y
 _atom_site_fract_z
 _atom_site_thermal_displace_type
 _atom_site_B_iso_or_equiv
 _atom_site_type_symbol
O1 1.0000000000 0.2509532958 0.2509532958 0.2471401125  Biso 1.0 O
O2 1.0000000000 0.7490467042 0.7490467042 0.7528598875  Biso 1.0 O
Pa3 1.0000000000 0.0000000000 0.0000000000 0.0000000000  Biso 1.0 Pa
