# AFLOW.org Repositories
# O3Rh1Tb1   [ORC,ORC,oP20] (STD_PRIM doi:
data_O3Rh1Tb1
_pd_phase_name O3Rh1Tb1
_cell_length_a  5.3191337286
_cell_length_b  5.7917281274
_cell_length_c  7.7082666019
_cell_angle_alpha  90.0000000000
_cell_angle_beta  90.0000000000
_cell_angle_gamma  90.0000000000
_symmetry_space_group_name_H-M  'P1'
_symmetry_Int_Tables_Number  1
loop_
_symmetry_equiv_pos_site_id
_symmetry_equiv_pos_as_xyz
  1  x,y,z
loop_
 _atom_site_label
 _atom_site_occupancy
 _atom_site_fract_x
 _atom_site_fract_y
 _atom_site_fract_z
 _atom_site_thermal_displace_type
 _atom_site_B_iso_or_equiv
 _atom_site_type_symbol
O1 1.0000000000 0.1800327749 0.1911584707 0.9374750044  Biso 1.0 O
O2 1.0000000000 0.6800327749 0.3088415293 0.0625249956  Biso 1.0 O
O3 1.0000000000 0.8199672251 0.8088415293 0.4374750044  Biso 1.0 O
O4 1.0000000000 0.3199672251 0.6911584707 0.5625249956  Biso 1.0 O
O5 1.0000000000 0.8199672251 0.8088415293 0.0625249956  Biso 1.0 O
O6 1.0000000000 0.3199672251 0.6911584707 0.9374750044  Biso 1.0 O
O7 1.0000000000 0.1800327749 0.1911584707 0.5625249956  Biso 1.0 O
O8 1.0000000000 0.6800327749 0.3088415293 0.4374750044  Biso 1.0 O
O9 1.0000000000 0.6313649439 0.0505184952 0.7500000000  Biso 1.0 O
O10 1.0000000000 0.1313649439 0.4494815048 0.2500000000  Biso 1.0 O
O11 1.0000000000 0.3686350561 0.9494815048 0.2500000000  Biso 1.0 O
O12 1.0000000000 0.8686350561 0.5505184952 0.7500000000  Biso 1.0 O
Rh13 1.0000000000 0.5000000000 0.0000000000 0.0000000000  Biso 1.0 Rh
Rh14 1.0000000000 0.0000000000 0.5000000000 0.0000000000  Biso 1.0 Rh
Rh15 1.0000000000 0.5000000000 0.0000000000 0.5000000000  Biso 1.0 Rh
Rh16 1.0000000000 0.0000000000 0.5000000000 0.5000000000  Biso 1.0 Rh
Tb17 1.0000000000 0.4718734525 0.4189531316 0.7500000000  Biso 1.0 Tb
Tb18 1.0000000000 0.9718734525 0.0810468684 0.2500000000  Biso 1.0 Tb
Tb19 1.0000000000 0.5281265475 0.5810468684 0.2500000000  Biso 1.0 Tb
Tb20 1.0000000000 0.0281265475 0.9189531316 0.7500000000  Biso 1.0 Tb
