# AFLOW.org Repositories
# O3Y2   [BCC,BCC,cI80] (STD_PRIM doi:10.1
data_O3Y2
_pd_phase_name O3Y2
_cell_length_a  9.2679512103
_cell_length_b  9.2679512103
_cell_length_c  9.2679512103
_cell_angle_alpha  109.4712206345
_cell_angle_beta  109.4712206345
_cell_angle_gamma  109.4712206345
_symmetry_space_group_name_H-M  'P1'
_symmetry_Int_Tables_Number  1
loop_
_symmetry_equiv_pos_site_id
_symmetry_equiv_pos_as_xyz
  1  x,y,z
loop_
 _atom_site_label
 _atom_site_occupancy
 _atom_site_fract_x
 _atom_site_fract_y
 _atom_site_fract_z
 _atom_site_thermal_displace_type
 _atom_site_B_iso_or_equiv
 _atom_site_type_symbol
O1 1.0000000000 0.2392989098 0.7707409262 0.2281566559  Biso 1.0 O
O2 1.0000000000 0.2607010902 0.9888577461 0.0314420164  Biso 1.0 O
O3 1.0000000000 0.9574157297 0.7292590738 0.4685579836  Biso 1.0 O
O4 1.0000000000 0.5425842703 0.5111422539 0.2718433441  Biso 1.0 O
O5 1.0000000000 0.9888577461 0.5314420164 0.7607010902  Biso 1.0 O
O6 1.0000000000 0.7707409262 0.7281566559 0.7392989098  Biso 1.0 O
O7 1.0000000000 0.5111422539 0.7718433441 0.0425842703  Biso 1.0 O
O8 1.0000000000 0.7292590738 0.9685579836 0.4574157297  Biso 1.0 O
O9 1.0000000000 0.7718433441 0.5425842703 0.0111422539  Biso 1.0 O
O10 1.0000000000 0.9685579836 0.9574157297 0.2292590738  Biso 1.0 O
O11 1.0000000000 0.5314420164 0.2607010902 0.4888577461  Biso 1.0 O
O12 1.0000000000 0.7281566559 0.2392989098 0.2707409262  Biso 1.0 O
O13 1.0000000000 0.7607010902 0.2292590738 0.7718433441  Biso 1.0 O
O14 1.0000000000 0.7392989098 0.0111422539 0.9685579836  Biso 1.0 O
O15 1.0000000000 0.0425842703 0.2707409262 0.5314420164  Biso 1.0 O
O16 1.0000000000 0.4574157297 0.4888577461 0.7281566559  Biso 1.0 O
O17 1.0000000000 0.0111422539 0.4685579836 0.2392989098  Biso 1.0 O
O18 1.0000000000 0.2292590738 0.2718433441 0.2607010902  Biso 1.0 O
O19 1.0000000000 0.4888577461 0.2281566559 0.9574157297  Biso 1.0 O
O20 1.0000000000 0.2707409262 0.0314420164 0.5425842703  Biso 1.0 O
O21 1.0000000000 0.2281566559 0.4574157297 0.9888577461  Biso 1.0 O
O22 1.0000000000 0.0314420164 0.0425842703 0.7707409262  Biso 1.0 O
O23 1.0000000000 0.4685579836 0.7392989098 0.5111422539  Biso 1.0 O
O24 1.0000000000 0.2718433441 0.7607010902 0.7292590738  Biso 1.0 O
Y25 1.0000000000 0.0000000000 0.5000000000 0.0000000000  Biso 1.0 Y
Y26 1.0000000000 0.5000000000 0.0000000000 0.0000000000  Biso 1.0 Y
Y27 1.0000000000 0.0000000000 0.0000000000 0.5000000000  Biso 1.0 Y
Y28 1.0000000000 0.5000000000 0.5000000000 0.5000000000  Biso 1.0 Y
Y29 1.0000000000 0.9673456482 0.2173456482 0.2500000000  Biso 1.0 Y
Y30 1.0000000000 0.5326543518 0.2826543518 0.7500000000  Biso 1.0 Y
Y31 1.0000000000 0.2826543518 0.2500000000 0.0326543518  Biso 1.0 Y
Y32 1.0000000000 0.2173456482 0.7500000000 0.4673456482  Biso 1.0 Y
Y33 1.0000000000 0.7500000000 0.9673456482 0.7173456482  Biso 1.0 Y
Y34 1.0000000000 0.2500000000 0.5326543518 0.7826543518  Biso 1.0 Y
Y35 1.0000000000 0.0326543518 0.7826543518 0.7500000000  Biso 1.0 Y
Y36 1.0000000000 0.4673456482 0.7173456482 0.2500000000  Biso 1.0 Y
Y37 1.0000000000 0.7173456482 0.7500000000 0.9673456482  Biso 1.0 Y
Y38 1.0000000000 0.7826543518 0.2500000000 0.5326543518  Biso 1.0 Y
Y39 1.0000000000 0.2500000000 0.0326543518 0.2826543518  Biso 1.0 Y
Y40 1.0000000000 0.7500000000 0.4673456482 0.2173456482  Biso 1.0 Y
