# AFLOW.org Repositories
# O4Si1Zr1   [BCT,BCT2,tI24] (STD_PRIM doi
data_O4Si1Zr1
_pd_phase_name O4Si1Zr1
_cell_length_a  6.3154162416
_cell_length_b  6.3154162416
_cell_length_c  6.3154162416
_cell_angle_alpha  135.4737588114
_cell_angle_beta  135.4737588114
_cell_angle_gamma  64.7949701330
_symmetry_space_group_name_H-M  'P1'
_symmetry_Int_Tables_Number  1
loop_
_symmetry_equiv_pos_site_id
_symmetry_equiv_pos_as_xyz
  1  x,y,z
loop_
 _atom_site_label
 _atom_site_occupancy
 _atom_site_fract_x
 _atom_site_fract_y
 _atom_site_fract_z
 _atom_site_thermal_displace_type
 _atom_site_B_iso_or_equiv
 _atom_site_type_symbol
O1 1.0000000000 0.2105014004 0.0442767529 0.8503225644  Biso 1.0 O
O2 1.0000000000 0.6939541884 0.3601788359 0.6496774356  Biso 1.0 O
O3 1.0000000000 0.0442767529 0.6939541884 0.8337753525  Biso 1.0 O
O4 1.0000000000 0.3601788359 0.2105014004 0.6662246475  Biso 1.0 O
O5 1.0000000000 0.7894985996 0.9557232471 0.1496774356  Biso 1.0 O
O6 1.0000000000 0.3060458116 0.6398211641 0.3503225644  Biso 1.0 O
O7 1.0000000000 0.9557232471 0.3060458116 0.1662246475  Biso 1.0 O
O8 1.0000000000 0.6398211641 0.7894985996 0.3337753525  Biso 1.0 O
Si9 1.0000000000 0.8750000000 0.1250000000 0.7500000000  Biso 1.0 Si
Si10 1.0000000000 0.1250000000 0.8750000000 0.2500000000  Biso 1.0 Si
Zr11 1.0000000000 0.3750000000 0.6250000000 0.7500000000  Biso 1.0 Zr
Zr12 1.0000000000 0.6250000000 0.3750000000 0.2500000000  Biso 1.0 Zr
