# AFLOW.org Repositories
# O6Pt3Zn1   [ORCC,ORCC,oS20] (STD_PRIM do
data_O6Pt3Zn1
_pd_phase_name O6Pt3Zn1
_cell_length_a  6.1592904052
_cell_length_b  6.1592904052
_cell_length_c  3.1928354043
_cell_angle_alpha  90.0000000000
_cell_angle_beta  90.0000000000
_cell_angle_gamma  108.5864827373
_symmetry_space_group_name_H-M  'P1'
_symmetry_Int_Tables_Number  1
loop_
_symmetry_equiv_pos_site_id
_symmetry_equiv_pos_as_xyz
  1  x,y,z
loop_
 _atom_site_label
 _atom_site_occupancy
 _atom_site_fract_x
 _atom_site_fract_y
 _atom_site_fract_z
 _atom_site_thermal_displace_type
 _atom_site_B_iso_or_equiv
 _atom_site_type_symbol
O1 1.0000000000 0.6474694202 0.3525305798 0.5000000000  Biso 1.0 O
O2 1.0000000000 0.3525305798 0.6474694202 0.5000000000  Biso 1.0 O
O3 1.0000000000 0.6609581606 0.9152125626 0.0000000000  Biso 1.0 O
O4 1.0000000000 0.3390418394 0.0847874374 0.0000000000  Biso 1.0 O
O5 1.0000000000 0.0847874374 0.3390418394 0.0000000000  Biso 1.0 O
O6 1.0000000000 0.9152125626 0.6609581606 0.0000000000  Biso 1.0 O
Pt7 1.0000000000 0.0000000000 0.0000000000 0.0000000000  Biso 1.0 Pt
Pt8 1.0000000000 0.5000000000 0.0000000000 0.5000000000  Biso 1.0 Pt
Pt9 1.0000000000 0.0000000000 0.5000000000 0.5000000000  Biso 1.0 Pt
Zn10 1.0000000000 0.5000000000 0.5000000000 0.0000000000  Biso 1.0 Zn
