# AFLOW.org Repositories
# O6Ta2V1   [TET,TET,tP18] (STD_PRIM doi:1
data_O6Ta2V1
_pd_phase_name O6Ta2V1
_cell_length_a  4.8433043476
_cell_length_b  4.8433043476
_cell_length_c  9.2761089264
_cell_angle_alpha  90.0000000000
_cell_angle_beta  90.0000000000
_cell_angle_gamma  90.0000000000
_symmetry_space_group_name_H-M  'P1'
_symmetry_Int_Tables_Number  1
loop_
_symmetry_equiv_pos_site_id
_symmetry_equiv_pos_as_xyz
  1  x,y,z
loop_
 _atom_site_label
 _atom_site_occupancy
 _atom_site_fract_x
 _atom_site_fract_y
 _atom_site_fract_z
 _atom_site_thermal_displace_type
 _atom_site_B_iso_or_equiv
 _atom_site_type_symbol
O1 1.0000000000 0.3138448609 0.3138448609 0.0000000000  Biso 1.0 O
O2 1.0000000000 0.6861551391 0.6861551391 0.0000000000  Biso 1.0 O
O3 1.0000000000 0.1861551391 0.8138448609 0.5000000000  Biso 1.0 O
O4 1.0000000000 0.8138448609 0.1861551391 0.5000000000  Biso 1.0 O
O5 1.0000000000 0.2948706649 0.2948706649 0.3225661872  Biso 1.0 O
O6 1.0000000000 0.7051293351 0.7051293351 0.3225661872  Biso 1.0 O
O7 1.0000000000 0.2051293351 0.7948706649 0.8225661872  Biso 1.0 O
O8 1.0000000000 0.7948706649 0.2051293351 0.8225661872  Biso 1.0 O
O9 1.0000000000 0.2051293351 0.7948706649 0.1774338128  Biso 1.0 O
O10 1.0000000000 0.7948706649 0.2051293351 0.1774338128  Biso 1.0 O
O11 1.0000000000 0.2948706649 0.2948706649 0.6774338128  Biso 1.0 O
O12 1.0000000000 0.7051293351 0.7051293351 0.6774338128  Biso 1.0 O
Ta13 1.0000000000 0.0000000000 0.0000000000 0.3306120981  Biso 1.0 Ta
Ta14 1.0000000000 0.5000000000 0.5000000000 0.8306120981  Biso 1.0 Ta
Ta15 1.0000000000 0.5000000000 0.5000000000 0.1693879019  Biso 1.0 Ta
Ta16 1.0000000000 0.0000000000 0.0000000000 0.6693879019  Biso 1.0 Ta
V17 1.0000000000 0.0000000000 0.0000000000 0.0000000000  Biso 1.0 V
V18 1.0000000000 0.5000000000 0.5000000000 0.5000000000  Biso 1.0 V
