# AFLOW.org Repositories
# O7P2Th1   [CUB,CUB,cP40] (STD_PRIM doi:1
data_O7P2Th1
_pd_phase_name O7P2Th1
_cell_length_a  9.2051057548
_cell_length_b  9.2051057548
_cell_length_c  9.2051057548
_cell_angle_alpha  90.0000000000
_cell_angle_beta  90.0000000000
_cell_angle_gamma  90.0000000000
_symmetry_space_group_name_H-M  'P1'
_symmetry_Int_Tables_Number  1
loop_
_symmetry_equiv_pos_site_id
_symmetry_equiv_pos_as_xyz
  1  x,y,z
loop_
 _atom_site_label
 _atom_site_occupancy
 _atom_site_fract_x
 _atom_site_fract_y
 _atom_site_fract_z
 _atom_site_thermal_displace_type
 _atom_site_B_iso_or_equiv
 _atom_site_type_symbol
O1 1.0000000000 0.5000000000 0.5000000000 0.5000000000  Biso 1.0 O
O2 1.0000000000 0.0000000000 0.5000000000 0.0000000000  Biso 1.0 O
O3 1.0000000000 0.5000000000 0.0000000000 0.0000000000  Biso 1.0 O
O4 1.0000000000 0.0000000000 0.0000000000 0.5000000000  Biso 1.0 O
O5 1.0000000000 0.7436281968 0.4310343011 0.9446558197  Biso 1.0 O
O6 1.0000000000 0.7563718032 0.5689656989 0.4446558197  Biso 1.0 O
O7 1.0000000000 0.2563718032 0.9310343011 0.5553441803  Biso 1.0 O
O8 1.0000000000 0.2436281968 0.0689656989 0.0553441803  Biso 1.0 O
O9 1.0000000000 0.0553441803 0.7436281968 0.5689656989  Biso 1.0 O
O10 1.0000000000 0.5553441803 0.7563718032 0.4310343011  Biso 1.0 O
O11 1.0000000000 0.4446558197 0.2563718032 0.0689656989  Biso 1.0 O
O12 1.0000000000 0.9446558197 0.2436281968 0.9310343011  Biso 1.0 O
O13 1.0000000000 0.4310343011 0.0553441803 0.2563718032  Biso 1.0 O
O14 1.0000000000 0.5689656989 0.5553441803 0.2436281968  Biso 1.0 O
O15 1.0000000000 0.9310343011 0.4446558197 0.7436281968  Biso 1.0 O
O16 1.0000000000 0.0689656989 0.9446558197 0.7563718032  Biso 1.0 O
O17 1.0000000000 0.2563718032 0.5689656989 0.0553441803  Biso 1.0 O
O18 1.0000000000 0.2436281968 0.4310343011 0.5553441803  Biso 1.0 O
O19 1.0000000000 0.7436281968 0.0689656989 0.4446558197  Biso 1.0 O
O20 1.0000000000 0.7563718032 0.9310343011 0.9446558197  Biso 1.0 O
O21 1.0000000000 0.9446558197 0.2563718032 0.4310343011  Biso 1.0 O
O22 1.0000000000 0.4446558197 0.2436281968 0.5689656989  Biso 1.0 O
O23 1.0000000000 0.5553441803 0.7436281968 0.9310343011  Biso 1.0 O
O24 1.0000000000 0.0553441803 0.7563718032 0.0689656989  Biso 1.0 O
O25 1.0000000000 0.5689656989 0.9446558197 0.7436281968  Biso 1.0 O
O26 1.0000000000 0.4310343011 0.4446558197 0.7563718032  Biso 1.0 O
O27 1.0000000000 0.0689656989 0.5553441803 0.2563718032  Biso 1.0 O
O28 1.0000000000 0.9310343011 0.0553441803 0.2436281968  Biso 1.0 O
P29 1.0000000000 0.5995615898 0.5995615898 0.4004384102  Biso 1.0 P
P30 1.0000000000 0.9004384102 0.4004384102 0.9004384102  Biso 1.0 P
P31 1.0000000000 0.4004384102 0.0995615898 0.0995615898  Biso 1.0 P
P32 1.0000000000 0.0995615898 0.9004384102 0.5995615898  Biso 1.0 P
P33 1.0000000000 0.4004384102 0.4004384102 0.5995615898  Biso 1.0 P
P34 1.0000000000 0.0995615898 0.5995615898 0.0995615898  Biso 1.0 P
P35 1.0000000000 0.5995615898 0.9004384102 0.9004384102  Biso 1.0 P
P36 1.0000000000 0.9004384102 0.0995615898 0.4004384102  Biso 1.0 P
Th37 1.0000000000 0.0000000000 0.0000000000 0.0000000000  Biso 1.0 Th
Th38 1.0000000000 0.5000000000 0.0000000000 0.5000000000  Biso 1.0 Th
Th39 1.0000000000 0.0000000000 0.5000000000 0.5000000000  Biso 1.0 Th
Th40 1.0000000000 0.5000000000 0.5000000000 0.0000000000  Biso 1.0 Th
