# AFLOW.org Repositories
# Os1Si1   [CUB,CUB,cP8] (STD_PRIM doi:10.
data_Os1Si1
_pd_phase_name Os1Si1
_cell_length_a  4.7767208612
_cell_length_b  4.7767208612
_cell_length_c  4.7767208612
_cell_angle_alpha  90.0000000000
_cell_angle_beta  90.0000000000
_cell_angle_gamma  90.0000000000
_symmetry_space_group_name_H-M  'P1'
_symmetry_Int_Tables_Number  1
loop_
_symmetry_equiv_pos_site_id
_symmetry_equiv_pos_as_xyz
  1  x,y,z
loop_
 _atom_site_label
 _atom_site_occupancy
 _atom_site_fract_x
 _atom_site_fract_y
 _atom_site_fract_z
 _atom_site_thermal_displace_type
 _atom_site_B_iso_or_equiv
 _atom_site_type_symbol
Os1 1.0000000000 0.8759998396 0.8759998396 0.1240001604  Biso 1.0 Os
Os2 1.0000000000 0.6240001604 0.1240001604 0.6240001604  Biso 1.0 Os
Os3 1.0000000000 0.1240001604 0.3759998396 0.3759998396  Biso 1.0 Os
Os4 1.0000000000 0.3759998396 0.6240001604 0.8759998396  Biso 1.0 Os
Si5 1.0000000000 0.1642641339 0.1642641339 0.8357358661  Biso 1.0 Si
Si6 1.0000000000 0.3357358661 0.8357358661 0.3357358661  Biso 1.0 Si
Si7 1.0000000000 0.8357358661 0.6642641339 0.6642641339  Biso 1.0 Si
Si8 1.0000000000 0.6642641339 0.3357358661 0.1642641339  Biso 1.0 Si
