# AFLOW.org Repositories
# Os2Y1   [HEX,HEX,hP12] (STD_PRIM doi:10.
data_Os2Y1
_pd_phase_name Os2Y1
_cell_length_a  5.2782432939
_cell_length_b  5.2782432939
_cell_length_c  8.9933133472
_cell_angle_alpha  90.0000000000
_cell_angle_beta  90.0000000000
_cell_angle_gamma  120.0000000000
_symmetry_space_group_name_H-M  'P1'
_symmetry_Int_Tables_Number  1
loop_
_symmetry_equiv_pos_site_id
_symmetry_equiv_pos_as_xyz
  1  x,y,z
loop_
 _atom_site_label
 _atom_site_occupancy
 _atom_site_fract_x
 _atom_site_fract_y
 _atom_site_fract_z
 _atom_site_thermal_displace_type
 _atom_site_B_iso_or_equiv
 _atom_site_type_symbol
Os1 1.0000000000 0.0000000000 0.0000000000 0.0000000000  Biso 1.0 Os
Os2 1.0000000000 0.0000000000 0.0000000000 0.5000000000  Biso 1.0 Os
Os3 1.0000000000 0.8295079452 0.1705214674 0.2500000000  Biso 1.0 Os
Os4 1.0000000000 0.8295079452 0.6589864779 0.2500000000  Biso 1.0 Os
Os5 1.0000000000 0.3410103796 0.1705051898 0.2500000000  Biso 1.0 Os
Os6 1.0000000000 0.1704920548 0.8294785326 0.7500000000  Biso 1.0 Os
Os7 1.0000000000 0.1704920548 0.3410135221 0.7500000000  Biso 1.0 Os
Os8 1.0000000000 0.6589896204 0.8294948102 0.7500000000  Biso 1.0 Os
Y9 1.0000000000 0.3333462148 0.6666731074 0.0654885058  Biso 1.0 Y
Y10 1.0000000000 0.6666537852 0.3333268926 0.5654885058  Biso 1.0 Y
Y11 1.0000000000 0.6666537852 0.3333268926 0.9345114942  Biso 1.0 Y
Y12 1.0000000000 0.3333462148 0.6666731074 0.4345114942  Biso 1.0 Y
