# AFLOW.org Repositories
# P1Rh1Zr1   [ORC,ORC,oP12] (STD_PRIM doi:
data_P1Rh1Zr1
_pd_phase_name P1Rh1Zr1
_cell_length_a  3.8085361850
_cell_length_b  6.5296701960
_cell_length_c  7.4479052683
_cell_angle_alpha  90.0000000000
_cell_angle_beta  90.0000000000
_cell_angle_gamma  90.0000000000
_symmetry_space_group_name_H-M  'P1'
_symmetry_Int_Tables_Number  1
loop_
_symmetry_equiv_pos_site_id
_symmetry_equiv_pos_as_xyz
  1  x,y,z
loop_
 _atom_site_label
 _atom_site_occupancy
 _atom_site_fract_x
 _atom_site_fract_y
 _atom_site_fract_z
 _atom_site_thermal_displace_type
 _atom_site_B_iso_or_equiv
 _atom_site_type_symbol
P1 1.0000000000 0.2500000000 0.7610497924 0.3777926674  Biso 1.0 P
P2 1.0000000000 0.7500000000 0.7389502076 0.8777926674  Biso 1.0 P
P3 1.0000000000 0.7500000000 0.2389502076 0.6222073326  Biso 1.0 P
P4 1.0000000000 0.2500000000 0.2610497924 0.1222073326  Biso 1.0 P
Rh5 1.0000000000 0.2500000000 0.1437721727 0.4377435274  Biso 1.0 Rh
Rh6 1.0000000000 0.7500000000 0.3562278273 0.9377435274  Biso 1.0 Rh
Rh7 1.0000000000 0.7500000000 0.8562278273 0.5622564726  Biso 1.0 Rh
Rh8 1.0000000000 0.2500000000 0.6437721727 0.0622564726  Biso 1.0 Rh
Zr9 1.0000000000 0.2500000000 0.0269027206 0.8193629827  Biso 1.0 Zr
Zr10 1.0000000000 0.7500000000 0.4730972794 0.3193629827  Biso 1.0 Zr
Zr11 1.0000000000 0.7500000000 0.9730972794 0.1806370173  Biso 1.0 Zr
Zr12 1.0000000000 0.2500000000 0.5269027206 0.6806370173  Biso 1.0 Zr
