# AFLOW.org Repositories
# P1Sc3   [ORC,ORC,oP16] (STD_PRIM doi:10.
data_P1Sc3
_pd_phase_name P1Sc3
_cell_length_a  5.9348266022
_cell_length_b  6.8333343354
_cell_length_c  8.6626831606
_cell_angle_alpha  90.0000000000
_cell_angle_beta  90.0000000000
_cell_angle_gamma  90.0000000000
_symmetry_space_group_name_H-M  'P1'
_symmetry_Int_Tables_Number  1
loop_
_symmetry_equiv_pos_site_id
_symmetry_equiv_pos_as_xyz
  1  x,y,z
loop_
 _atom_site_label
 _atom_site_occupancy
 _atom_site_fract_x
 _atom_site_fract_y
 _atom_site_fract_z
 _atom_site_thermal_displace_type
 _atom_site_B_iso_or_equiv
 _atom_site_type_symbol
P1 1.0000000000 0.5728629180 0.3722973561 0.7500000000  Biso 1.0 P
P2 1.0000000000 0.0728629180 0.1277026439 0.2500000000  Biso 1.0 P
P3 1.0000000000 0.4271370820 0.6277026439 0.2500000000  Biso 1.0 P
P4 1.0000000000 0.9271370820 0.8722973561 0.7500000000  Biso 1.0 P
Sc5 1.0000000000 0.8546583462 0.1804356052 0.9467525779  Biso 1.0 Sc
Sc6 1.0000000000 0.3546583462 0.3195643948 0.0532474221  Biso 1.0 Sc
Sc7 1.0000000000 0.1453416538 0.8195643948 0.4467525779  Biso 1.0 Sc
Sc8 1.0000000000 0.6453416538 0.6804356052 0.5532474221  Biso 1.0 Sc
Sc9 1.0000000000 0.1453416538 0.8195643948 0.0532474221  Biso 1.0 Sc
Sc10 1.0000000000 0.6453416538 0.6804356052 0.9467525779  Biso 1.0 Sc
Sc11 1.0000000000 0.8546583462 0.1804356052 0.5532474221  Biso 1.0 Sc
Sc12 1.0000000000 0.3546583462 0.3195643948 0.4467525779  Biso 1.0 Sc
Sc13 1.0000000000 0.3496698698 0.0287766790 0.7500000000  Biso 1.0 Sc
Sc14 1.0000000000 0.8496698698 0.4712233210 0.2500000000  Biso 1.0 Sc
Sc15 1.0000000000 0.6503301302 0.9712233210 0.2500000000  Biso 1.0 Sc
Sc16 1.0000000000 0.1503301302 0.5287766790 0.7500000000  Biso 1.0 Sc
