# AFLOW.org Repositories
# P1Sr1   [HEX,HEX,hP12] (STD_PRIM doi:10.
data_P1Sr1
_pd_phase_name P1Sr1
_cell_length_a  8.0959854811
_cell_length_b  8.0959854811
_cell_length_c  6.0517369168
_cell_angle_alpha  90.0000000000
_cell_angle_beta  90.0000000000
_cell_angle_gamma  120.0000000000
_symmetry_space_group_name_H-M  'P1'
_symmetry_Int_Tables_Number  1
loop_
_symmetry_equiv_pos_site_id
_symmetry_equiv_pos_as_xyz
  1  x,y,z
loop_
 _atom_site_label
 _atom_site_occupancy
 _atom_site_fract_x
 _atom_site_fract_y
 _atom_site_fract_z
 _atom_site_thermal_displace_type
 _atom_site_B_iso_or_equiv
 _atom_site_type_symbol
P1 1.0000000000 0.0000000000 0.0000000000 0.3132140042  Biso 1.0 P
P2 1.0000000000 0.0000000000 0.0000000000 0.6867859958  Biso 1.0 P
P3 1.0000000000 0.3333338805 0.6666659806 0.1917421590  Biso 1.0 P
P4 1.0000000000 0.3333338805 0.6666659806 0.8082578410  Biso 1.0 P
P5 1.0000000000 0.6666661195 0.3333321001 0.8082578410  Biso 1.0 P
P6 1.0000000000 0.6666661195 0.3333321001 0.1917421590  Biso 1.0 P
Sr7 1.0000000000 0.6946767777 0.6946767777 0.0000000000  Biso 1.0 Sr
Sr8 1.0000000000 0.3053247946 0.0000000000 0.0000000000  Biso 1.0 Sr
Sr9 1.0000000000 0.0000000000 0.3053282423 0.0000000000  Biso 1.0 Sr
Sr10 1.0000000000 0.3595949348 0.3595949348 0.5000000000  Biso 1.0 Sr
Sr11 1.0000000000 0.6404043026 0.0000000000 0.5000000000  Biso 1.0 Sr
Sr12 1.0000000000 0.0000000000 0.6404028627 0.5000000000  Biso 1.0 Sr
