# AFLOW.org Repositories
# P1W3   [BCT,BCT1,tI32] (STD_PRIM doi:10.
data_P1W3
_pd_phase_name P1W3
_cell_length_a  7.4381328039
_cell_length_b  7.4381328039
_cell_length_c  7.4381328039
_cell_angle_alpha  96.1707407789
_cell_angle_beta  96.1707407789
_cell_angle_gamma  141.7222212013
_symmetry_space_group_name_H-M  'P1'
_symmetry_Int_Tables_Number  1
loop_
_symmetry_equiv_pos_site_id
_symmetry_equiv_pos_as_xyz
  1  x,y,z
loop_
 _atom_site_label
 _atom_site_occupancy
 _atom_site_fract_x
 _atom_site_fract_y
 _atom_site_fract_z
 _atom_site_thermal_displace_type
 _atom_site_B_iso_or_equiv
 _atom_site_type_symbol
P1 1.0000000000 0.5009862291 0.7926354289 0.2930074849  Biso 1.0 P
P2 1.0000000000 0.4996279440 0.2079787442 0.7069925151  Biso 1.0 P
P3 1.0000000000 0.2073645711 0.5003720560 0.7083508002  Biso 1.0 P
P4 1.0000000000 0.7920212558 0.4990137709 0.2916491998  Biso 1.0 P
W5 1.0000000000 0.3266927980 0.3266927980 0.1880960180  Biso 1.0 W
W6 1.0000000000 0.1384156100 0.1384156100 0.8119039820  Biso 1.0 W
W7 1.0000000000 0.6734883720 0.8615843900 0.0000000000  Biso 1.0 W
W8 1.0000000000 0.8614032200 0.6733072020 0.0000000000  Biso 1.0 W
W9 1.0000000000 0.0000000000 0.3535698846 0.3538971324  Biso 1.0 W
W10 1.0000000000 0.0000000000 0.6464301154 0.6459885873  Biso 1.0 W
W11 1.0000000000 0.6459885873 0.0000000000 0.6459885873  Biso 1.0 W
W12 1.0000000000 0.3538971324 0.0000000000 0.3538971324  Biso 1.0 W
W13 1.0000000000 0.9264376878 0.9264376878 0.3996271460  Biso 1.0 W
W14 1.0000000000 0.5258194440 0.5258194440 0.6003728540  Biso 1.0 W
W15 1.0000000000 0.0745534100 0.4741805560 0.0000000000  Biso 1.0 W
W16 1.0000000000 0.4731894582 0.0735623122 0.0000000000  Biso 1.0 W
