# AFLOW.org Repositories
# P2W1   [ORCC,ORCC,oS12] (STD_PRIM doi:10
data_P2W1
_pd_phase_name P2W1
_cell_length_a  5.8475708930
_cell_length_b  5.8475708930
_cell_length_c  5.0143989926
_cell_angle_alpha  90.0000000000
_cell_angle_beta  90.0000000000
_cell_angle_gamma  148.1820323023
_symmetry_space_group_name_H-M  'P1'
_symmetry_Int_Tables_Number  1
loop_
_symmetry_equiv_pos_site_id
_symmetry_equiv_pos_as_xyz
  1  x,y,z
loop_
 _atom_site_label
 _atom_site_occupancy
 _atom_site_fract_x
 _atom_site_fract_y
 _atom_site_fract_z
 _atom_site_thermal_displace_type
 _atom_site_B_iso_or_equiv
 _atom_site_type_symbol
P1 1.0000000000 0.7015331724 0.2984668276 0.1996902563  Biso 1.0 P
P2 1.0000000000 0.2984668276 0.7015331724 0.6996902563  Biso 1.0 P
P3 1.0000000000 0.5698810639 0.4301189361 0.8830883191  Biso 1.0 P
P4 1.0000000000 0.4301189361 0.5698810639 0.3830883191  Biso 1.0 P
W5 1.0000000000 0.9068697656 0.0931302344 0.0000000000  Biso 1.0 W
W6 1.0000000000 0.0931302344 0.9068697656 0.5002214246  Biso 1.0 W
