# AFLOW.org Repositories
# P3Pd1   [BCC,BCC,cI32] (STD_PRIM doi:10.
data_P3Pd1
_pd_phase_name P3Pd1
_cell_length_a  7.1129522383
_cell_length_b  7.1129522383
_cell_length_c  7.1129522383
_cell_angle_alpha  109.4712206345
_cell_angle_beta  109.4712206345
_cell_angle_gamma  109.4712206345
_symmetry_space_group_name_H-M  'P1'
_symmetry_Int_Tables_Number  1
loop_
_symmetry_equiv_pos_site_id
_symmetry_equiv_pos_as_xyz
  1  x,y,z
loop_
 _atom_site_label
 _atom_site_occupancy
 _atom_site_fract_x
 _atom_site_fract_y
 _atom_site_fract_z
 _atom_site_thermal_displace_type
 _atom_site_B_iso_or_equiv
 _atom_site_type_symbol
P1 1.0000000000 0.6354581921 0.1352631726 0.7707213647  Biso 1.0 P
P2 1.0000000000 0.3645418079 0.1352631726 0.4998049805  Biso 1.0 P
P3 1.0000000000 0.6354581921 0.8647368274 0.5001950195  Biso 1.0 P
P4 1.0000000000 0.3645418079 0.8647368274 0.2292786353  Biso 1.0 P
P5 1.0000000000 0.1352631726 0.4998049805 0.3645418079  Biso 1.0 P
P6 1.0000000000 0.1352631726 0.7707213647 0.6354581921  Biso 1.0 P
P7 1.0000000000 0.8647368274 0.2292786353 0.3645418079  Biso 1.0 P
P8 1.0000000000 0.8647368274 0.5001950195 0.6354581921  Biso 1.0 P
P9 1.0000000000 0.2292786353 0.3645418079 0.8647368274  Biso 1.0 P
P10 1.0000000000 0.5001950195 0.6354581921 0.8647368274  Biso 1.0 P
P11 1.0000000000 0.4998049805 0.3645418079 0.1352631726  Biso 1.0 P
P12 1.0000000000 0.7707213647 0.6354581921 0.1352631726  Biso 1.0 P
Pd13 1.0000000000 0.0000000000 0.5000000000 0.0000000000  Biso 1.0 Pd
Pd14 1.0000000000 0.0000000000 0.0000000000 0.5000000000  Biso 1.0 Pd
Pd15 1.0000000000 0.5000000000 0.5000000000 0.5000000000  Biso 1.0 Pd
Pd16 1.0000000000 0.5000000000 0.0000000000 0.0000000000  Biso 1.0 Pd
