# AFLOW.org Repositories
# P3Ru1   [TRI,TRI1b,aP16] (STD_PRIM doi:1
data_P3Ru1
_pd_phase_name P3Ru1
_cell_length_a  5.9856123968
_cell_length_b  5.9201269362
_cell_length_c  8.1416080547
_cell_angle_alpha  70.2411680788
_cell_angle_beta  68.6069416968
_cell_angle_gamma  72.6680648196
_symmetry_space_group_name_H-M  'P1'
_symmetry_Int_Tables_Number  1
loop_
_symmetry_equiv_pos_site_id
_symmetry_equiv_pos_as_xyz
  1  x,y,z
loop_
 _atom_site_label
 _atom_site_occupancy
 _atom_site_fract_x
 _atom_site_fract_y
 _atom_site_fract_z
 _atom_site_thermal_displace_type
 _atom_site_B_iso_or_equiv
 _atom_site_type_symbol
P1 1.0000000000 0.7827292218 0.6606853751 0.3423303800  Biso 1.0 P
P2 1.0000000000 0.2172707782 0.3393146249 0.6576696200  Biso 1.0 P
P3 1.0000000000 0.3372887683 0.3215655134 0.2344324362  Biso 1.0 P
P4 1.0000000000 0.6627112317 0.6784344866 0.7655675638  Biso 1.0 P
P5 1.0000000000 0.9481373825 0.3179455884 0.0590899706  Biso 1.0 P
P6 1.0000000000 0.0518626175 0.6820544116 0.9409100294  Biso 1.0 P
P7 1.0000000000 0.6837936400 0.8477455976 0.0854508182  Biso 1.0 P
P8 1.0000000000 0.3162063600 0.1522544024 0.9145491818  Biso 1.0 P
P9 1.0000000000 0.5280255440 0.1930574357 0.4477017647  Biso 1.0 P
P10 1.0000000000 0.4719744560 0.8069425643 0.5522982353  Biso 1.0 P
P11 1.0000000000 0.0821759261 0.8294252752 0.3190449978  Biso 1.0 P
P12 1.0000000000 0.9178240739 0.1705747248 0.6809550022  Biso 1.0 P
Ru13 1.0000000000 0.9305604446 0.2274731998 0.3723359615  Biso 1.0 Ru
Ru14 1.0000000000 0.0694395554 0.7725268002 0.6276640385  Biso 1.0 Ru
Ru15 1.0000000000 0.6333677559 0.2773137825 0.9559525741  Biso 1.0 Ru
Ru16 1.0000000000 0.3666322441 0.7226862175 0.0440474259  Biso 1.0 Ru
