# AFLOW.org Repositories
# Pb2Y1   [ORCC,ORCC,oS12] (STD_PRIM doi:1
data_Pb2Y1
_pd_phase_name Pb2Y1
_cell_length_a  8.6412319630
_cell_length_b  8.6412319630
_cell_length_c  4.5424569655
_cell_angle_alpha  90.0000000000
_cell_angle_beta  90.0000000000
_cell_angle_gamma  149.4708812798
_symmetry_space_group_name_H-M  'P1'
_symmetry_Int_Tables_Number  1
loop_
_symmetry_equiv_pos_site_id
_symmetry_equiv_pos_as_xyz
  1  x,y,z
loop_
 _atom_site_label
 _atom_site_occupancy
 _atom_site_fract_x
 _atom_site_fract_y
 _atom_site_fract_z
 _atom_site_thermal_displace_type
 _atom_site_B_iso_or_equiv
 _atom_site_type_symbol
Pb1 1.0000000000 0.7495975224 0.2504024776 0.7500000000  Biso 1.0 Pb
Pb2 1.0000000000 0.2504024776 0.7495975224 0.2500000000  Biso 1.0 Pb
Pb3 1.0000000000 0.4319937026 0.5680062974 0.7500000000  Biso 1.0 Pb
Pb4 1.0000000000 0.5680062974 0.4319937026 0.2500000000  Biso 1.0 Pb
Y5 1.0000000000 0.0953151337 0.9046848663 0.7500000000  Biso 1.0 Y
Y6 1.0000000000 0.9046848663 0.0953151337 0.2500000000  Biso 1.0 Y
