# AFLOW.org Repositories
# Pd16S7   [BCC,BCC,cI46] (STD_PRIM doi:10
data_Pd16S7
_pd_phase_name Pd16S7
_cell_length_a  7.8202883956
_cell_length_b  7.8202883956
_cell_length_c  7.8202883956
_cell_angle_alpha  109.4712206345
_cell_angle_beta  109.4712206345
_cell_angle_gamma  109.4712206345
_symmetry_space_group_name_H-M  'P1'
_symmetry_Int_Tables_Number  1
loop_
_symmetry_equiv_pos_site_id
_symmetry_equiv_pos_as_xyz
  1  x,y,z
loop_
 _atom_site_label
 _atom_site_occupancy
 _atom_site_fract_x
 _atom_site_fract_y
 _atom_site_fract_z
 _atom_site_thermal_displace_type
 _atom_site_B_iso_or_equiv
 _atom_site_type_symbol
Pd1 1.0000000000 0.0000000000 0.7515438665 0.4120534041  Biso 1.0 Pd
Pd2 1.0000000000 0.0000000000 0.4120534041 0.7515438665  Biso 1.0 Pd
Pd3 1.0000000000 0.6605095376 0.2484561335 0.2484561335  Biso 1.0 Pd
Pd4 1.0000000000 0.3394904624 0.5879465959 0.5879465959  Biso 1.0 Pd
Pd5 1.0000000000 0.2484561335 0.2484561335 0.6605095376  Biso 1.0 Pd
Pd6 1.0000000000 0.5879465959 0.5879465959 0.3394904624  Biso 1.0 Pd
Pd7 1.0000000000 0.7515438665 0.4120534041 0.0000000000  Biso 1.0 Pd
Pd8 1.0000000000 0.4120534041 0.7515438665 0.0000000000  Biso 1.0 Pd
Pd9 1.0000000000 0.7515438665 0.0000000000 0.4120534041  Biso 1.0 Pd
Pd10 1.0000000000 0.4120534041 0.0000000000 0.7515438665  Biso 1.0 Pd
Pd11 1.0000000000 0.5879465959 0.3394904624 0.5879465959  Biso 1.0 Pd
Pd12 1.0000000000 0.2484561335 0.6605095376 0.2484561335  Biso 1.0 Pd
Pd13 1.0000000000 0.0000000000 0.0000000000 0.7688859140  Biso 1.0 Pd
Pd14 1.0000000000 0.0000000000 0.7688859140 0.0000000000  Biso 1.0 Pd
Pd15 1.0000000000 0.7688859140 0.0000000000 0.0000000000  Biso 1.0 Pd
Pd16 1.0000000000 0.2311140860 0.2311140860 0.2311140860  Biso 1.0 Pd
S17 1.0000000000 0.0000000000 0.0000000000 0.3131390223  Biso 1.0 S
S18 1.0000000000 0.0000000000 0.3131390223 0.0000000000  Biso 1.0 S
S19 1.0000000000 0.3131390223 0.0000000000 0.0000000000  Biso 1.0 S
S20 1.0000000000 0.6868609777 0.6868609777 0.6868609777  Biso 1.0 S
S21 1.0000000000 0.5000000000 0.5000000000 0.0000000000  Biso 1.0 S
S22 1.0000000000 0.5000000000 0.0000000000 0.5000000000  Biso 1.0 S
S23 1.0000000000 0.0000000000 0.5000000000 0.5000000000  Biso 1.0 S
