# AFLOW.org Repositories
# Pd1Sn1   [ORC,ORC,oP8] (STD_PRIM doi:10.
data_Pd1Sn1
_pd_phase_name Pd1Sn1
_cell_length_a  3.9788278434
_cell_length_b  6.3160764103
_cell_length_c  6.4598724592
_cell_angle_alpha  90.0000000000
_cell_angle_beta  90.0000000000
_cell_angle_gamma  90.0000000000
_symmetry_space_group_name_H-M  'P1'
_symmetry_Int_Tables_Number  1
loop_
_symmetry_equiv_pos_site_id
_symmetry_equiv_pos_as_xyz
  1  x,y,z
loop_
 _atom_site_label
 _atom_site_occupancy
 _atom_site_fract_x
 _atom_site_fract_y
 _atom_site_fract_z
 _atom_site_thermal_displace_type
 _atom_site_B_iso_or_equiv
 _atom_site_type_symbol
Pd1 1.0000000000 0.2500000000 0.0113906923 0.8122891406  Biso 1.0 Pd
Pd2 1.0000000000 0.7500000000 0.4886093077 0.3122891406  Biso 1.0 Pd
Pd3 1.0000000000 0.7500000000 0.9886093077 0.1877108594  Biso 1.0 Pd
Pd4 1.0000000000 0.2500000000 0.5113906923 0.6877108594  Biso 1.0 Pd
Sn5 1.0000000000 0.2500000000 0.1917376031 0.4057036741  Biso 1.0 Sn
Sn6 1.0000000000 0.7500000000 0.3082623969 0.9057036741  Biso 1.0 Sn
Sn7 1.0000000000 0.7500000000 0.8082623969 0.5942963259  Biso 1.0 Sn
Sn8 1.0000000000 0.2500000000 0.6917376031 0.0942963259  Biso 1.0 Sn
