# AFLOW.org Repositories
# Pd1Si1Sr1   [CUB,CUB,cP12] (STD_PRIM doi
data_Pd1Si1Sr1
_pd_phase_name Pd1Si1Sr1
_cell_length_a  6.5477372361
_cell_length_b  6.5477372361
_cell_length_c  6.5477372361
_cell_angle_alpha  90.0000000000
_cell_angle_beta  90.0000000000
_cell_angle_gamma  90.0000000000
_symmetry_space_group_name_H-M  'P1'
_symmetry_Int_Tables_Number  1
loop_
_symmetry_equiv_pos_site_id
_symmetry_equiv_pos_as_xyz
  1  x,y,z
loop_
 _atom_site_label
 _atom_site_occupancy
 _atom_site_fract_x
 _atom_site_fract_y
 _atom_site_fract_z
 _atom_site_thermal_displace_type
 _atom_site_B_iso_or_equiv
 _atom_site_type_symbol
Pd1 1.0000000000 0.5902177003 0.5902177003 0.4097822997  Biso 1.0 Pd
Pd2 1.0000000000 0.9097822997 0.4097822997 0.9097822997  Biso 1.0 Pd
Pd3 1.0000000000 0.4097822997 0.0902177003 0.0902177003  Biso 1.0 Pd
Pd4 1.0000000000 0.0902177003 0.9097822997 0.5902177003  Biso 1.0 Pd
Si5 1.0000000000 0.1632396999 0.1632396999 0.8367603001  Biso 1.0 Si
Si6 1.0000000000 0.3367603001 0.8367603001 0.3367603001  Biso 1.0 Si
Si7 1.0000000000 0.8367603001 0.6632396999 0.6632396999  Biso 1.0 Si
Si8 1.0000000000 0.6632396999 0.3367603001 0.1632396999  Biso 1.0 Si
Sr9 1.0000000000 0.8703081828 0.8703081828 0.1296918172  Biso 1.0 Sr
Sr10 1.0000000000 0.6296918172 0.1296918172 0.6296918172  Biso 1.0 Sr
Sr11 1.0000000000 0.1296918172 0.3703081828 0.3703081828  Biso 1.0 Sr
Sr12 1.0000000000 0.3703081828 0.6296918172 0.8703081828  Biso 1.0 Sr
