# AFLOW.org Repositories
# Pd1Ti2   [BCT,BCT2,tI6] (STD_PRIM doi:10
data_Pd1Ti2
_pd_phase_name Pd1Ti2
_cell_length_a  5.6331850657
_cell_length_b  5.6331850657
_cell_length_c  5.6331850657
_cell_angle_alpha  147.7890005657
_cell_angle_beta  147.7890005657
_cell_angle_gamma  46.1969414444
_symmetry_space_group_name_H-M  'P1'
_symmetry_Int_Tables_Number  1
loop_
_symmetry_equiv_pos_site_id
_symmetry_equiv_pos_as_xyz
  1  x,y,z
loop_
 _atom_site_label
 _atom_site_occupancy
 _atom_site_fract_x
 _atom_site_fract_y
 _atom_site_fract_z
 _atom_site_thermal_displace_type
 _atom_site_B_iso_or_equiv
 _atom_site_type_symbol
Pd1 1.0000000000 0.0000000000 0.0000000000 0.0000000000  Biso 1.0 Pd
Ti2 1.0000000000 0.3375457376 0.3375457376 0.0000000000  Biso 1.0 Ti
Ti3 1.0000000000 0.6624542624 0.6624542624 0.0000000000  Biso 1.0 Ti
