# AFLOW.org Repositories
# Pd3V1   [BCT,BCT2,tI8] (STD_PRIM doi:10.
data_Pd3V1
_pd_phase_name Pd3V1
_cell_length_a  4.7567109473
_cell_length_b  4.7567109473
_cell_length_c  4.7567109473
_cell_angle_alpha  132.0702973070
_cell_angle_beta  132.0702973070
_cell_angle_gamma  70.1180225734
_symmetry_space_group_name_H-M  'P1'
_symmetry_Int_Tables_Number  1
loop_
_symmetry_equiv_pos_site_id
_symmetry_equiv_pos_as_xyz
  1  x,y,z
loop_
 _atom_site_label
 _atom_site_occupancy
 _atom_site_fract_x
 _atom_site_fract_y
 _atom_site_fract_z
 _atom_site_thermal_displace_type
 _atom_site_B_iso_or_equiv
 _atom_site_type_symbol
Pd1 1.0000000000 0.5000000000 0.5000000000 0.0000000000  Biso 1.0 Pd
Pd2 1.0000000000 0.2500000000 0.7500000000 0.5000000000  Biso 1.0 Pd
Pd3 1.0000000000 0.7500000000 0.2500000000 0.5000000000  Biso 1.0 Pd
V4 1.0000000000 0.0000000000 0.0000000000 0.0000000000  Biso 1.0 V
