# AFLOW.org Repositories
# Pt1Sb2Zr6   [HEX,HEX,hP9] (STD_PRIM doi:
data_Pt1Sb2Zr6
_pd_phase_name Pt1Sb2Zr6
_cell_length_a  7.8743989364
_cell_length_b  7.8743989364
_cell_length_c  3.6989398448
_cell_angle_alpha  90.0000000000
_cell_angle_beta  90.0000000000
_cell_angle_gamma  120.0000000000
_symmetry_space_group_name_H-M  'P1'
_symmetry_Int_Tables_Number  1
loop_
_symmetry_equiv_pos_site_id
_symmetry_equiv_pos_as_xyz
  1  x,y,z
loop_
 _atom_site_label
 _atom_site_occupancy
 _atom_site_fract_x
 _atom_site_fract_y
 _atom_site_fract_z
 _atom_site_thermal_displace_type
 _atom_site_B_iso_or_equiv
 _atom_site_type_symbol
Pt1 1.0000000000 0.0000000000 0.0000000000 0.0000000000  Biso 1.0 Pt
Sb2 1.0000000000 0.6666745939 0.3333516993 0.5000000000  Biso 1.0 Sb
Sb3 1.0000000000 0.3333228946 0.6666483007 0.5000000000  Biso 1.0 Sb
Zr4 1.0000000000 0.0000000000 0.4048231811 0.0000000000  Biso 1.0 Zr
Zr5 1.0000000000 0.5951768189 0.5951768189 0.0000000000  Biso 1.0 Zr
Zr6 1.0000000000 0.4048247870 0.0000000000 0.0000000000  Biso 1.0 Zr
Zr7 1.0000000000 0.0000000000 0.7482591690 0.5000000000  Biso 1.0 Zr
Zr8 1.0000000000 0.2517408310 0.2517408310 0.5000000000  Biso 1.0 Zr
Zr9 1.0000000000 0.7482554055 0.0000000000 0.5000000000  Biso 1.0 Zr
