# AFLOW.org Repositories
# Pt3Sb2   [ORCI,ORCI,oI20] (STD_PRIM doi:
data_Pt3Sb2
_pd_phase_name Pt3Sb2
_cell_length_a  6.9505159968
_cell_length_b  6.9505159968
_cell_length_c  6.9505159968
_cell_angle_alpha  134.6640248600
_cell_angle_beta  123.4962918069
_cell_angle_gamma  75.2364121257
_symmetry_space_group_name_H-M  'P1'
_symmetry_Int_Tables_Number  1
loop_
_symmetry_equiv_pos_site_id
_symmetry_equiv_pos_as_xyz
  1  x,y,z
loop_
 _atom_site_label
 _atom_site_occupancy
 _atom_site_fract_x
 _atom_site_fract_y
 _atom_site_fract_z
 _atom_site_thermal_displace_type
 _atom_site_B_iso_or_equiv
 _atom_site_type_symbol
Pt1 1.0000000000 0.0000000000 0.2500000000 0.2500000000  Biso 1.0 Pt
Pt2 1.0000000000 0.0000000000 0.7500000000 0.7500000000  Biso 1.0 Pt
Pt3 1.0000000000 0.7395234873 0.6098202233 0.1297032640  Biso 1.0 Pt
Pt4 1.0000000000 0.2604765127 0.3901797767 0.8702967360  Biso 1.0 Pt
Pt5 1.0000000000 0.4801169594 0.1098202233 0.3702967360  Biso 1.0 Pt
Pt6 1.0000000000 0.5198830406 0.8901797767 0.6297032640  Biso 1.0 Pt
Sb7 1.0000000000 0.0870063392 0.8460842730 0.2409220661  Biso 1.0 Sb
Sb8 1.0000000000 0.9129936608 0.1539157270 0.7590779339  Biso 1.0 Sb
Sb9 1.0000000000 0.6051622069 0.3460842730 0.2590779339  Biso 1.0 Sb
Sb10 1.0000000000 0.3948377931 0.6539157270 0.7409220661  Biso 1.0 Sb
