# AFLOW.org Repositories
# Rb3Sb1Se3   [CUB,CUB,cP28] (STD_PRIM doi
data_Rb3Sb1Se3
_pd_phase_name Rb3Sb1Se3
_cell_length_a  10.3648225032
_cell_length_b  10.3648225032
_cell_length_c  10.3648225032
_cell_angle_alpha  90.0000000000
_cell_angle_beta  90.0000000000
_cell_angle_gamma  90.0000000000
_symmetry_space_group_name_H-M  'P1'
_symmetry_Int_Tables_Number  1
loop_
_symmetry_equiv_pos_site_id
_symmetry_equiv_pos_as_xyz
  1  x,y,z
loop_
 _atom_site_label
 _atom_site_occupancy
 _atom_site_fract_x
 _atom_site_fract_y
 _atom_site_fract_z
 _atom_site_thermal_displace_type
 _atom_site_B_iso_or_equiv
 _atom_site_type_symbol
Rb1 1.0000000000 0.6838865546 0.6838865546 0.3161134454  Biso 1.0 Rb
Rb2 1.0000000000 0.8161134454 0.3161134454 0.8161134454  Biso 1.0 Rb
Rb3 1.0000000000 0.3161134454 0.1838865546 0.1838865546  Biso 1.0 Rb
Rb4 1.0000000000 0.1838865546 0.8161134454 0.6838865546  Biso 1.0 Rb
Rb5 1.0000000000 0.4249457581 0.4249457581 0.5750542419  Biso 1.0 Rb
Rb6 1.0000000000 0.0750542419 0.5750542419 0.0750542419  Biso 1.0 Rb
Rb7 1.0000000000 0.5750542419 0.9249457581 0.9249457581  Biso 1.0 Rb
Rb8 1.0000000000 0.9249457581 0.0750542419 0.4249457581  Biso 1.0 Rb
Rb9 1.0000000000 0.1883692240 0.1883692240 0.8116307760  Biso 1.0 Rb
Rb10 1.0000000000 0.3116307760 0.8116307760 0.3116307760  Biso 1.0 Rb
Rb11 1.0000000000 0.8116307760 0.6883692240 0.6883692240  Biso 1.0 Rb
Rb12 1.0000000000 0.6883692240 0.3116307760 0.1883692240  Biso 1.0 Rb
Sb13 1.0000000000 0.9731936883 0.9731936883 0.0268063117  Biso 1.0 Sb
Sb14 1.0000000000 0.5268063117 0.0268063117 0.5268063117  Biso 1.0 Sb
Sb15 1.0000000000 0.0268063117 0.4731936883 0.4731936883  Biso 1.0 Sb
Sb16 1.0000000000 0.4731936883 0.5268063117 0.9731936883  Biso 1.0 Sb
Se17 1.0000000000 0.7880160306 0.3996740547 0.4951934251  Biso 1.0 Se
Se18 1.0000000000 0.7119839694 0.6003259453 0.9951934251  Biso 1.0 Se
Se19 1.0000000000 0.2119839694 0.8996740547 0.0048065749  Biso 1.0 Se
Se20 1.0000000000 0.2880160306 0.1003259453 0.5048065749  Biso 1.0 Se
Se21 1.0000000000 0.5048065749 0.7880160306 0.6003259453  Biso 1.0 Se
Se22 1.0000000000 0.0048065749 0.7119839694 0.3996740547  Biso 1.0 Se
Se23 1.0000000000 0.9951934251 0.2119839694 0.1003259453  Biso 1.0 Se
Se24 1.0000000000 0.4951934251 0.2880160306 0.8996740547  Biso 1.0 Se
Se25 1.0000000000 0.3996740547 0.5048065749 0.2119839694  Biso 1.0 Se
Se26 1.0000000000 0.6003259453 0.0048065749 0.2880160306  Biso 1.0 Se
Se27 1.0000000000 0.8996740547 0.9951934251 0.7880160306  Biso 1.0 Se
Se28 1.0000000000 0.1003259453 0.4951934251 0.7119839694  Biso 1.0 Se
