# AFLOW.org Repositories
# Re2Sc1   [HEX,HEX,hP12] (STD_PRIM doi:10
data_Re2Sc1
_pd_phase_name Re2Sc1
_cell_length_a  5.3294213423
_cell_length_b  5.3294213423
_cell_length_c  8.6568615194
_cell_angle_alpha  90.0000000000
_cell_angle_beta  90.0000000000
_cell_angle_gamma  120.0000000000
_symmetry_space_group_name_H-M  'P1'
_symmetry_Int_Tables_Number  1
loop_
_symmetry_equiv_pos_site_id
_symmetry_equiv_pos_as_xyz
  1  x,y,z
loop_
 _atom_site_label
 _atom_site_occupancy
 _atom_site_fract_x
 _atom_site_fract_y
 _atom_site_fract_z
 _atom_site_thermal_displace_type
 _atom_site_B_iso_or_equiv
 _atom_site_type_symbol
Re1 1.0000000000 0.0000000000 0.0000000000 0.0000000000  Biso 1.0 Re
Re2 1.0000000000 0.0000000000 0.0000000000 0.5000000000  Biso 1.0 Re
Re3 1.0000000000 0.8284674823 0.1715509670 0.2500000000  Biso 1.0 Re
Re4 1.0000000000 0.8284674823 0.6569165153 0.2500000000  Biso 1.0 Re
Re5 1.0000000000 0.3430857900 0.1715428950 0.2500000000  Biso 1.0 Re
Re6 1.0000000000 0.1715325177 0.8284490330 0.7500000000  Biso 1.0 Re
Re7 1.0000000000 0.1715325177 0.3430834847 0.7500000000  Biso 1.0 Re
Re8 1.0000000000 0.6569142100 0.8284571050 0.7500000000  Biso 1.0 Re
Sc9 1.0000000000 0.3333532672 0.6666766336 0.0620051899  Biso 1.0 Sc
Sc10 1.0000000000 0.6666467328 0.3333233664 0.5620051899  Biso 1.0 Sc
Sc11 1.0000000000 0.6666467328 0.3333233664 0.9379948101  Biso 1.0 Sc
Sc12 1.0000000000 0.3333532672 0.6666766336 0.4379948101  Biso 1.0 Sc
