# AFLOW.org Repositories
# Re2Y1   [HEX,HEX,hP12] (STD_PRIM doi:10.
data_Re2Y1
_pd_phase_name Re2Y1
_cell_length_a  5.4434619623
_cell_length_b  5.4434619623
_cell_length_c  8.8589719245
_cell_angle_alpha  90.0000000000
_cell_angle_beta  90.0000000000
_cell_angle_gamma  120.0000000000
_symmetry_space_group_name_H-M  'P1'
_symmetry_Int_Tables_Number  1
loop_
_symmetry_equiv_pos_site_id
_symmetry_equiv_pos_as_xyz
  1  x,y,z
loop_
 _atom_site_label
 _atom_site_occupancy
 _atom_site_fract_x
 _atom_site_fract_y
 _atom_site_fract_z
 _atom_site_thermal_displace_type
 _atom_site_B_iso_or_equiv
 _atom_site_type_symbol
Re1 1.0000000000 0.0000000000 0.0000000000 0.0000000000  Biso 1.0 Re
Re2 1.0000000000 0.0000000000 0.0000000000 0.5000000000  Biso 1.0 Re
Re3 1.0000000000 0.8293163945 0.6586551299 0.2500000000  Biso 1.0 Re
Re4 1.0000000000 0.3413448701 0.1706836055 0.2500000000  Biso 1.0 Re
Re5 1.0000000000 0.8293251113 0.1706748887 0.2500000000  Biso 1.0 Re
Re6 1.0000000000 0.1706836055 0.3413448701 0.7500000000  Biso 1.0 Re
Re7 1.0000000000 0.6586551299 0.8293163945 0.7500000000  Biso 1.0 Re
Re8 1.0000000000 0.1706748887 0.8293251113 0.7500000000  Biso 1.0 Re
Y9 1.0000000000 0.3333277316 0.6666722684 0.0617974668  Biso 1.0 Y
Y10 1.0000000000 0.6666722684 0.3333277316 0.5617974668  Biso 1.0 Y
Y11 1.0000000000 0.6666722684 0.3333277316 0.9382025332  Biso 1.0 Y
Y12 1.0000000000 0.3333277316 0.6666722684 0.4382025332  Biso 1.0 Y
