# AFLOW.org Repositories
# Rh1Zr1   [MCL,MCL,mP4] (STD_PRIM doi:10.
data_Rh1Zr1
_pd_phase_name Rh1Zr1
_cell_length_a  4.6086172107
_cell_length_b  3.3526488269
_cell_length_c  4.6132964458
_cell_angle_alpha  89.8145959664
_cell_angle_beta  90.0000000000
_cell_angle_gamma  90.0000000000
_symmetry_space_group_name_H-M  'P1'
_symmetry_Int_Tables_Number  1
loop_
_symmetry_equiv_pos_site_id
_symmetry_equiv_pos_as_xyz
  1  x,y,z
loop_
 _atom_site_label
 _atom_site_occupancy
 _atom_site_fract_x
 _atom_site_fract_y
 _atom_site_fract_z
 _atom_site_thermal_displace_type
 _atom_site_B_iso_or_equiv
 _atom_site_type_symbol
Rh1 1.0000000000 0.7500000000 0.0000000000 0.7508772238  Biso 1.0 Rh
Rh2 1.0000000000 0.2500000000 0.0000000000 0.2491227762  Biso 1.0 Rh
Zr3 1.0000000000 0.2500000000 0.5002526215 0.7496607151  Biso 1.0 Zr
Zr4 1.0000000000 0.7500000000 0.4997473785 0.2503392849  Biso 1.0 Zr
