# AFLOW.org Repositories
# Rh2S3   [ORC,ORC,oP20] (STD_PRIM doi:10.
data_Rh2S3
_pd_phase_name Rh2S3
_cell_length_a  6.0507326221
_cell_length_b  6.2155201510
_cell_length_c  8.5631873886
_cell_angle_alpha  90.0000000000
_cell_angle_beta  90.0000000000
_cell_angle_gamma  90.0000000000
_symmetry_space_group_name_H-M  'P1'
_symmetry_Int_Tables_Number  1
loop_
_symmetry_equiv_pos_site_id
_symmetry_equiv_pos_as_xyz
  1  x,y,z
loop_
 _atom_site_label
 _atom_site_occupancy
 _atom_site_fract_x
 _atom_site_fract_y
 _atom_site_fract_z
 _atom_site_thermal_displace_type
 _atom_site_B_iso_or_equiv
 _atom_site_type_symbol
Rh1 1.0000000000 0.7484517772 0.9663661949 0.1055057737  Biso 1.0 Rh
Rh2 1.0000000000 0.7515482228 0.4663661949 0.3944942263  Biso 1.0 Rh
Rh3 1.0000000000 0.7484517772 0.5336338051 0.8944942263  Biso 1.0 Rh
Rh4 1.0000000000 0.7515482228 0.0336338051 0.6055057737  Biso 1.0 Rh
Rh5 1.0000000000 0.2515482228 0.0336338051 0.8944942263  Biso 1.0 Rh
Rh6 1.0000000000 0.2484517772 0.5336338051 0.6055057737  Biso 1.0 Rh
Rh7 1.0000000000 0.2515482228 0.4663661949 0.1055057737  Biso 1.0 Rh
Rh8 1.0000000000 0.2484517772 0.9663661949 0.3944942263  Biso 1.0 Rh
S9 1.0000000000 0.6090804307 0.6072382244 0.1512874398  Biso 1.0 S
S10 1.0000000000 0.8909195693 0.1072382244 0.3487125602  Biso 1.0 S
S11 1.0000000000 0.6090804307 0.8927617756 0.8487125602  Biso 1.0 S
S12 1.0000000000 0.8909195693 0.3927617756 0.6512874398  Biso 1.0 S
S13 1.0000000000 0.3909195693 0.3927617756 0.8487125602  Biso 1.0 S
S14 1.0000000000 0.1090804307 0.8927617756 0.6512874398  Biso 1.0 S
S15 1.0000000000 0.3909195693 0.1072382244 0.1512874398  Biso 1.0 S
S16 1.0000000000 0.1090804307 0.6072382244 0.3487125602  Biso 1.0 S
S17 1.0000000000 0.0476720219 0.7500000000 0.0000000000  Biso 1.0 S
S18 1.0000000000 0.4523279781 0.2500000000 0.5000000000  Biso 1.0 S
S19 1.0000000000 0.9523279781 0.2500000000 0.0000000000  Biso 1.0 S
S20 1.0000000000 0.5476720219 0.7500000000 0.5000000000  Biso 1.0 S
