# AFLOW.org Repositories
# Ru1Tb3   [ORC,ORC,oP16] (STD_PRIM doi:10
data_Ru1Tb3
_pd_phase_name Ru1Tb3
_cell_length_a  6.3364806554
_cell_length_b  7.2838739400
_cell_length_c  9.2742897558
_cell_angle_alpha  90.0000000000
_cell_angle_beta  90.0000000000
_cell_angle_gamma  90.0000000000
_symmetry_space_group_name_H-M  'P1'
_symmetry_Int_Tables_Number  1
loop_
_symmetry_equiv_pos_site_id
_symmetry_equiv_pos_as_xyz
  1  x,y,z
loop_
 _atom_site_label
 _atom_site_occupancy
 _atom_site_fract_x
 _atom_site_fract_y
 _atom_site_fract_z
 _atom_site_thermal_displace_type
 _atom_site_B_iso_or_equiv
 _atom_site_type_symbol
Ru1 1.0000000000 0.5417390887 0.3838828013 0.7500000000  Biso 1.0 Ru
Ru2 1.0000000000 0.0417390887 0.1161171987 0.2500000000  Biso 1.0 Ru
Ru3 1.0000000000 0.4582609113 0.6161171987 0.2500000000  Biso 1.0 Ru
Ru4 1.0000000000 0.9582609113 0.8838828013 0.7500000000  Biso 1.0 Ru
Tb5 1.0000000000 0.8296481723 0.1765993376 0.9338125990  Biso 1.0 Tb
Tb6 1.0000000000 0.3296481723 0.3234006624 0.0661874010  Biso 1.0 Tb
Tb7 1.0000000000 0.1703518277 0.8234006624 0.4338125990  Biso 1.0 Tb
Tb8 1.0000000000 0.6703518277 0.6765993376 0.5661874010  Biso 1.0 Tb
Tb9 1.0000000000 0.1703518277 0.8234006624 0.0661874010  Biso 1.0 Tb
Tb10 1.0000000000 0.6703518277 0.6765993376 0.9338125990  Biso 1.0 Tb
Tb11 1.0000000000 0.8296481723 0.1765993376 0.5661874010  Biso 1.0 Tb
Tb12 1.0000000000 0.3296481723 0.3234006624 0.4338125990  Biso 1.0 Tb
Tb13 1.0000000000 0.3605124105 0.0411161018 0.7500000000  Biso 1.0 Tb
Tb14 1.0000000000 0.8605124105 0.4588838982 0.2500000000  Biso 1.0 Tb
Tb15 1.0000000000 0.6394875895 0.9588838982 0.2500000000  Biso 1.0 Tb
Tb16 1.0000000000 0.1394875895 0.5411161018 0.7500000000  Biso 1.0 Tb
