# AFLOW.org Repositories
# S1Zn1   [HEX,HEX,hP12] (STD_PRIM doi:10.
data_S1Zn1
_pd_phase_name S1Zn1
_cell_length_a  3.7979091297
_cell_length_b  3.7979091297
_cell_length_c  18.6232842687
_cell_angle_alpha  90.0000000000
_cell_angle_beta  90.0000000000
_cell_angle_gamma  120.0000000000
_symmetry_space_group_name_H-M  'P1'
_symmetry_Int_Tables_Number  1
loop_
_symmetry_equiv_pos_site_id
_symmetry_equiv_pos_as_xyz
  1  x,y,z
loop_
 _atom_site_label
 _atom_site_occupancy
 _atom_site_fract_x
 _atom_site_fract_y
 _atom_site_fract_z
 _atom_site_thermal_displace_type
 _atom_site_B_iso_or_equiv
 _atom_site_type_symbol
S1 1.0000000000 0.0000000000 0.0000000000 0.1250716803  Biso 1.0 S
S2 1.0000000000 0.0000000000 0.0000000000 0.6250716803  Biso 1.0 S
S3 1.0000000000 0.3333630059 0.6666815030 0.2916814151  Biso 1.0 S
S4 1.0000000000 0.6666369941 0.3333184970 0.7916814151  Biso 1.0 S
S5 1.0000000000 0.6666184076 0.3333092038 0.4582469114  Biso 1.0 S
S6 1.0000000000 0.3333815924 0.6666907962 0.9582469114  Biso 1.0 S
Zn7 1.0000000000 0.0000000000 0.0000000000 0.0000000000  Biso 1.0 Zn
Zn8 1.0000000000 0.0000000000 0.0000000000 0.4999973133  Biso 1.0 Zn
Zn9 1.0000000000 0.3333841799 0.6666920900 0.1666892735  Biso 1.0 Zn
Zn10 1.0000000000 0.6666158201 0.3333079100 0.6666892735  Biso 1.0 Zn
Zn11 1.0000000000 0.6666339842 0.3333169921 0.3333134063  Biso 1.0 Zn
Zn12 1.0000000000 0.3333660158 0.6666830079 0.8333134063  Biso 1.0 Zn
