# AFLOW.org Repositories
# S3Sc1Y1   [ORC,ORC,oP20] (STD_PRIM doi:1
data_S3Sc1Y1
_pd_phase_name S3Sc1Y1
_cell_length_a  6.4388758437
_cell_length_b  7.0558193802
_cell_length_c  9.6405455334
_cell_angle_alpha  90.0000000000
_cell_angle_beta  90.0000000000
_cell_angle_gamma  90.0000000000
_symmetry_space_group_name_H-M  'P1'
_symmetry_Int_Tables_Number  1
loop_
_symmetry_equiv_pos_site_id
_symmetry_equiv_pos_as_xyz
  1  x,y,z
loop_
 _atom_site_label
 _atom_site_occupancy
 _atom_site_fract_x
 _atom_site_fract_y
 _atom_site_fract_z
 _atom_site_thermal_displace_type
 _atom_site_B_iso_or_equiv
 _atom_site_type_symbol
S1 1.0000000000 0.3234266651 0.3139897241 0.8145882938  Biso 1.0 S
S2 1.0000000000 0.6764708789 0.6860136850 0.3145894971  Biso 1.0 S
S3 1.0000000000 0.1765151308 0.8139767377 0.8145900454  Biso 1.0 S
S4 1.0000000000 0.8233875135 0.1860254760 0.3145940629  Biso 1.0 S
S5 1.0000000000 0.3230447984 0.3167924346 0.1681208967  Biso 1.0 S
S6 1.0000000000 0.6768519519 0.6832113072 0.6681189839  Biso 1.0 S
S7 1.0000000000 0.1768034523 0.8168100296 0.1681343182  Biso 1.0 S
S8 1.0000000000 0.8230990898 0.1831923185 0.6681306196  Biso 1.0 S
S9 1.0000000000 0.3524399450 0.0515289320 0.4907987556  Biso 1.0 S
S10 1.0000000000 0.6474710095 0.9484609700 0.9907994639  Biso 1.0 S
S11 1.0000000000 0.1474666814 0.5515207102 0.4907822322  Biso 1.0 S
S12 1.0000000000 0.8524156791 0.4484661534 0.9907818611  Biso 1.0 S
Sc13 1.0000000000 0.5005866887 0.0017305655 0.2405407108  Biso 1.0 Sc
Sc14 1.0000000000 0.4993269344 0.9982734239 0.7405430040  Biso 1.0 Sc
Sc15 1.0000000000 0.0000000000 0.5017237125 0.2405250436  Biso 1.0 Sc
Sc16 1.0000000000 0.0000000000 0.4982802385 0.7405294825  Biso 1.0 Sc
Y17 1.0000000000 0.0413271600 0.0999975605 0.9909456014  Biso 1.0 Y
Y18 1.0000000000 0.9585873167 0.9000040226 0.4909462175  Biso 1.0 Y
Y19 1.0000000000 0.4585578212 0.5999932839 0.9909708472  Biso 1.0 Y
Y20 1.0000000000 0.5413302733 0.4000087142 0.4909700627  Biso 1.0 Y
