# AFLOW.org Repositories
# S3Sn1Sr1   [ORC,ORC,oP20] (STD_PRIM doi:
data_S3Sn1Sr1
_pd_phase_name S3Sn1Sr1
_cell_length_a  3.9608440872
_cell_length_b  8.3081726827
_cell_length_c  14.4259089374
_cell_angle_alpha  90.0000000000
_cell_angle_beta  90.0000000000
_cell_angle_gamma  90.0000000000
_symmetry_space_group_name_H-M  'P1'
_symmetry_Int_Tables_Number  1
loop_
_symmetry_equiv_pos_site_id
_symmetry_equiv_pos_as_xyz
  1  x,y,z
loop_
 _atom_site_label
 _atom_site_occupancy
 _atom_site_fract_x
 _atom_site_fract_y
 _atom_site_fract_z
 _atom_site_thermal_displace_type
 _atom_site_B_iso_or_equiv
 _atom_site_type_symbol
S1 1.0000000000 0.7500000000 0.9722106262 0.8940735794  Biso 1.0 S
S2 1.0000000000 0.2500000000 0.5277893738 0.3940735794  Biso 1.0 S
S3 1.0000000000 0.2500000000 0.0277893738 0.1059264206  Biso 1.0 S
S4 1.0000000000 0.7500000000 0.4722106262 0.6059264206  Biso 1.0 S
S5 1.0000000000 0.7500000000 0.3555782467 0.0034926053  Biso 1.0 S
S6 1.0000000000 0.2500000000 0.1444217533 0.5034926053  Biso 1.0 S
S7 1.0000000000 0.2500000000 0.6444217533 0.9965073947  Biso 1.0 S
S8 1.0000000000 0.7500000000 0.8555782467 0.4965073947  Biso 1.0 S
S9 1.0000000000 0.2500000000 0.3024707177 0.7821678985  Biso 1.0 S
S10 1.0000000000 0.7500000000 0.1975292823 0.2821678985  Biso 1.0 S
S11 1.0000000000 0.7500000000 0.6975292823 0.2178321015  Biso 1.0 S
S12 1.0000000000 0.2500000000 0.8024707177 0.7178321015  Biso 1.0 S
Sn13 1.0000000000 0.2500000000 0.1753410499 0.9405700566  Biso 1.0 Sn
Sn14 1.0000000000 0.7500000000 0.3246589501 0.4405700566  Biso 1.0 Sn
Sn15 1.0000000000 0.7500000000 0.8246589501 0.0594299434  Biso 1.0 Sn
Sn16 1.0000000000 0.2500000000 0.6753410499 0.5594299434  Biso 1.0 Sn
Sr17 1.0000000000 0.7500000000 0.5799642763 0.8220801455  Biso 1.0 Sr
Sr18 1.0000000000 0.2500000000 0.9200357237 0.3220801455  Biso 1.0 Sr
Sr19 1.0000000000 0.2500000000 0.4200357237 0.1779198545  Biso 1.0 Sr
Sr20 1.0000000000 0.7500000000 0.0799642763 0.6779198545  Biso 1.0 Sr
