# AFLOW.org Repositories
# S3Sr1Zr1   [ORC,ORC,oP20] (STD_PRIM doi:
data_S3Sr1Zr1
_pd_phase_name S3Sr1Zr1
_cell_length_a  6.7912665930
_cell_length_b  7.1828852194
_cell_length_c  9.8475603428
_cell_angle_alpha  90.0000000000
_cell_angle_beta  90.0000000000
_cell_angle_gamma  90.0000000000
_symmetry_space_group_name_H-M  'P1'
_symmetry_Int_Tables_Number  1
loop_
_symmetry_equiv_pos_site_id
_symmetry_equiv_pos_as_xyz
  1  x,y,z
loop_
 _atom_site_label
 _atom_site_occupancy
 _atom_site_fract_x
 _atom_site_fract_y
 _atom_site_fract_z
 _atom_site_thermal_displace_type
 _atom_site_B_iso_or_equiv
 _atom_site_type_symbol
S1 1.0000000000 0.8078038515 0.3032940198 0.5502034089  Biso 1.0 S
S2 1.0000000000 0.3078038515 0.1967059802 0.4497965911  Biso 1.0 S
S3 1.0000000000 0.1921961485 0.6967059802 0.0502034089  Biso 1.0 S
S4 1.0000000000 0.6921961485 0.8032940198 0.9497965911  Biso 1.0 S
S5 1.0000000000 0.1921961485 0.6967059802 0.4497965911  Biso 1.0 S
S6 1.0000000000 0.6921961485 0.8032940198 0.5502034089  Biso 1.0 S
S7 1.0000000000 0.8078038515 0.3032940198 0.9497965911  Biso 1.0 S
S8 1.0000000000 0.3078038515 0.1967059802 0.0502034089  Biso 1.0 S
S9 1.0000000000 0.4026017282 0.4800667518 0.7500000000  Biso 1.0 S
S10 1.0000000000 0.9026017282 0.0199332482 0.2500000000  Biso 1.0 S
S11 1.0000000000 0.5973982718 0.5199332482 0.2500000000  Biso 1.0 S
S12 1.0000000000 0.0973982718 0.9800667518 0.7500000000  Biso 1.0 S
Sr13 1.0000000000 0.5242379280 0.0797314940 0.7500000000  Biso 1.0 Sr
Sr14 1.0000000000 0.0242379280 0.4202685060 0.2500000000  Biso 1.0 Sr
Sr15 1.0000000000 0.4757620720 0.9202685060 0.2500000000  Biso 1.0 Sr
Sr16 1.0000000000 0.9757620720 0.5797314940 0.7500000000  Biso 1.0 Sr
Zr17 1.0000000000 0.0000000000 0.0000000000 0.0000000000  Biso 1.0 Zr
Zr18 1.0000000000 0.5000000000 0.5000000000 0.0000000000  Biso 1.0 Zr
Zr19 1.0000000000 0.0000000000 0.0000000000 0.5000000000  Biso 1.0 Zr
Zr20 1.0000000000 0.5000000000 0.5000000000 0.5000000000  Biso 1.0 Zr
