# AFLOW.org Repositories
# S4Sn1Sr2   [ORCC,ORCC,oS28] (STD_PRIM do
data_S4Sn1Sr2
_pd_phase_name S4Sn1Sr2
_cell_length_a  6.4178188596
_cell_length_b  6.4178188596
_cell_length_c  10.1531963743
_cell_angle_alpha  90.0000000000
_cell_angle_beta  90.0000000000
_cell_angle_gamma  110.2859975647
_symmetry_space_group_name_H-M  'P1'
_symmetry_Int_Tables_Number  1
loop_
_symmetry_equiv_pos_site_id
_symmetry_equiv_pos_as_xyz
  1  x,y,z
loop_
 _atom_site_label
 _atom_site_occupancy
 _atom_site_fract_x
 _atom_site_fract_y
 _atom_site_fract_z
 _atom_site_thermal_displace_type
 _atom_site_B_iso_or_equiv
 _atom_site_type_symbol
S1 1.0000000000 0.9520420692 0.0907498363 0.7500000000  Biso 1.0 S
S2 1.0000000000 0.0907498363 0.9520420692 0.2500000000  Biso 1.0 S
S3 1.0000000000 0.5008869416 0.3798916726 0.7500000000  Biso 1.0 S
S4 1.0000000000 0.3798916726 0.5008869416 0.2500000000  Biso 1.0 S
S5 1.0000000000 0.1067311126 0.6471885109 0.9453146859  Biso 1.0 S
S6 1.0000000000 0.6471885109 0.1067311126 0.0546853141  Biso 1.0 S
S7 1.0000000000 0.6471885109 0.1067311126 0.4453146859  Biso 1.0 S
S8 1.0000000000 0.1067311126 0.6471885109 0.5546853141  Biso 1.0 S
Sn9 1.0000000000 0.9021867956 0.4576042947 0.7500000000  Biso 1.0 Sn
Sn10 1.0000000000 0.4576042947 0.9021867956 0.2500000000  Biso 1.0 Sn
Sr11 1.0000000000 0.4781669088 0.8565925977 0.7500000000  Biso 1.0 Sr
Sr12 1.0000000000 0.8565925977 0.4781669088 0.2500000000  Biso 1.0 Sr
Sr13 1.0000000000 0.2076498183 0.2076498183 0.0000000000  Biso 1.0 Sr
Sr14 1.0000000000 0.2076498183 0.2076498183 0.5000000000  Biso 1.0 Sr
