# AFLOW.org Repositories
# S4Tl3V1   [BCC,BCC,cI16] (STD_PRIM doi:1
data_S4Tl3V1
_pd_phase_name S4Tl3V1
_cell_length_a  6.6551241048
_cell_length_b  6.6551241048
_cell_length_c  6.6551241048
_cell_angle_alpha  109.4712206345
_cell_angle_beta  109.4712206345
_cell_angle_gamma  109.4712206345
_symmetry_space_group_name_H-M  'P1'
_symmetry_Int_Tables_Number  1
loop_
_symmetry_equiv_pos_site_id
_symmetry_equiv_pos_as_xyz
  1  x,y,z
loop_
 _atom_site_label
 _atom_site_occupancy
 _atom_site_fract_x
 _atom_site_fract_y
 _atom_site_fract_z
 _atom_site_thermal_displace_type
 _atom_site_B_iso_or_equiv
 _atom_site_type_symbol
S1 1.0000000000 0.3273614593 0.3273614593 0.3273614593  Biso 1.0 S
S2 1.0000000000 0.6726385407 0.0000000000 0.0000000000  Biso 1.0 S
S3 1.0000000000 0.0000000000 0.0000000000 0.6726385407  Biso 1.0 S
S4 1.0000000000 0.0000000000 0.6726385407 0.0000000000  Biso 1.0 S
Tl5 1.0000000000 0.5000000000 0.0000000000 0.5000000000  Biso 1.0 Tl
Tl6 1.0000000000 0.5000000000 0.5000000000 0.0000000000  Biso 1.0 Tl
Tl7 1.0000000000 0.0000000000 0.5000000000 0.5000000000  Biso 1.0 Tl
V8 1.0000000000 0.0000000000 0.0000000000 0.0000000000  Biso 1.0 V
