# AFLOW.org Repositories
# S7Tb5   [MCLC,MCLC1,mS24] (STD_PRIM doi:
data_S7Tb5
_pd_phase_name S7Tb5
_cell_length_a  6.7428801483
_cell_length_b  6.7428801483
_cell_length_c  11.6651585766
_cell_angle_alpha  76.0168352071
_cell_angle_beta  76.0168352071
_cell_angle_gamma  32.9945418103
_symmetry_space_group_name_H-M  'P1'
_symmetry_Int_Tables_Number  1
loop_
_symmetry_equiv_pos_site_id
_symmetry_equiv_pos_as_xyz
  1  x,y,z
loop_
 _atom_site_label
 _atom_site_occupancy
 _atom_site_fract_x
 _atom_site_fract_y
 _atom_site_fract_z
 _atom_site_thermal_displace_type
 _atom_site_B_iso_or_equiv
 _atom_site_type_symbol
S1 1.0000000000 0.5000000000 0.5000000000 0.5000000000  Biso 1.0 S
S2 1.0000000000 0.6592036945 0.6592036945 0.9490720722  Biso 1.0 S
S3 1.0000000000 0.3407963055 0.3407963055 0.0509279278  Biso 1.0 S
S4 1.0000000000 0.9584097494 0.9584097494 0.7849630822  Biso 1.0 S
S5 1.0000000000 0.0415902506 0.0415902506 0.2150369178  Biso 1.0 S
S6 1.0000000000 0.2591704054 0.2591704054 0.3519035806  Biso 1.0 S
S7 1.0000000000 0.7408295946 0.7408295946 0.6480964194  Biso 1.0 S
Tb8 1.0000000000 0.0000000000 0.0000000000 0.0000000000  Biso 1.0 Tb
Tb9 1.0000000000 0.1119990381 0.1119990381 0.5789194491  Biso 1.0 Tb
Tb10 1.0000000000 0.8880009619 0.8880009619 0.4210805509  Biso 1.0 Tb
Tb11 1.0000000000 0.3003771143 0.3003771143 0.8124520879  Biso 1.0 Tb
Tb12 1.0000000000 0.6996228857 0.6996228857 0.1875479121  Biso 1.0 Tb
