# AFLOW.org Repositories
# Sb4Ta5   [BCT,BCT1,tI18] (STD_PRIM doi:1
data_Sb4Ta5
_pd_phase_name Sb4Ta5
_cell_length_a  7.5957153888
_cell_length_b  7.5957153888
_cell_length_c  7.5957153888
_cell_angle_alpha  92.8931157537
_cell_angle_beta  92.8931157537
_cell_angle_gamma  154.0340125168
_symmetry_space_group_name_H-M  'P1'
_symmetry_Int_Tables_Number  1
loop_
_symmetry_equiv_pos_site_id
_symmetry_equiv_pos_as_xyz
  1  x,y,z
loop_
 _atom_site_label
 _atom_site_occupancy
 _atom_site_fract_x
 _atom_site_fract_y
 _atom_site_fract_z
 _atom_site_thermal_displace_type
 _atom_site_B_iso_or_equiv
 _atom_site_type_symbol
Sb1 1.0000000000 0.6358840024 0.6770162590 0.3129002614  Biso 1.0 Sb
Sb2 1.0000000000 0.3641159976 0.3229837410 0.6870997386  Biso 1.0 Sb
Sb3 1.0000000000 0.6770162590 0.3641159976 0.0411322566  Biso 1.0 Sb
Sb4 1.0000000000 0.3229837410 0.6358840024 0.9588677434  Biso 1.0 Sb
Ta5 1.0000000000 0.0000000000 0.0000000000 0.0000000000  Biso 1.0 Ta
Ta6 1.0000000000 0.6536380615 0.9540494777 0.6076875392  Biso 1.0 Ta
Ta7 1.0000000000 0.3463619385 0.0459505223 0.3923124608  Biso 1.0 Ta
Ta8 1.0000000000 0.9540494777 0.3463619385 0.3004114161  Biso 1.0 Ta
Ta9 1.0000000000 0.0459505223 0.6536380615 0.6995885839  Biso 1.0 Ta
