# AFLOW.org Repositories
# Sc1Te1   [HEX,HEX,hP4] (STD_PRIM doi:10.
data_Sc1Te1
_pd_phase_name Sc1Te1
_cell_length_a  4.2004857025
_cell_length_b  4.2004857025
_cell_length_c  6.9987103659
_cell_angle_alpha  90.0000000000
_cell_angle_beta  90.0000000000
_cell_angle_gamma  120.0000000000
_symmetry_space_group_name_H-M  'P1'
_symmetry_Int_Tables_Number  1
loop_
_symmetry_equiv_pos_site_id
_symmetry_equiv_pos_as_xyz
  1  x,y,z
loop_
 _atom_site_label
 _atom_site_occupancy
 _atom_site_fract_x
 _atom_site_fract_y
 _atom_site_fract_z
 _atom_site_thermal_displace_type
 _atom_site_B_iso_or_equiv
 _atom_site_type_symbol
Sc1 1.0000000000 0.0000000000 0.0000000000 0.0000000000  Biso 1.0 Sc
Sc2 1.0000000000 0.0000000000 0.0000000000 0.5000000000  Biso 1.0 Sc
Te3 1.0000000000 0.6666718867 0.3333437733 0.2500000000  Biso 1.0 Te
Te4 1.0000000000 0.3333281133 0.6666562267 0.7500000000  Biso 1.0 Te
