# AFLOW.org Repositories
# Se4Y2Zn1   [FCC,FCC,cF56] (STD_PRIM doi:
data_Se4Y2Zn1
_pd_phase_name Se4Y2Zn1
_cell_length_a  8.1369126075
_cell_length_b  8.1369126075
_cell_length_c  8.1369126075
_cell_angle_alpha  60.0000000000
_cell_angle_beta  60.0000000000
_cell_angle_gamma  60.0000000000
_symmetry_space_group_name_H-M  'P1'
_symmetry_Int_Tables_Number  1
loop_
_symmetry_equiv_pos_site_id
_symmetry_equiv_pos_as_xyz
  1  x,y,z
loop_
 _atom_site_label
 _atom_site_occupancy
 _atom_site_fract_x
 _atom_site_fract_y
 _atom_site_fract_z
 _atom_site_thermal_displace_type
 _atom_site_B_iso_or_equiv
 _atom_site_type_symbol
Se1 1.0000000000 0.2490977873 0.2490977873 0.2490977873  Biso 1.0 Se
Se2 1.0000000000 0.2490977873 0.7527066381 0.2490977873  Biso 1.0 Se
Se3 1.0000000000 0.7527066381 0.2490977873 0.2490977873  Biso 1.0 Se
Se4 1.0000000000 0.2490977873 0.2490977873 0.7527066381  Biso 1.0 Se
Se5 1.0000000000 0.7509022127 0.2472933619 0.7509022127  Biso 1.0 Se
Se6 1.0000000000 0.7509022127 0.7509022127 0.7509022127  Biso 1.0 Se
Se7 1.0000000000 0.2472933619 0.7509022127 0.7509022127  Biso 1.0 Se
Se8 1.0000000000 0.7509022127 0.7509022127 0.2472933619  Biso 1.0 Se
Y9 1.0000000000 0.0000000000 0.0000000000 0.0000000000  Biso 1.0 Y
Y10 1.0000000000 0.0000000000 0.5000000000 0.0000000000  Biso 1.0 Y
Y11 1.0000000000 0.5000000000 0.0000000000 0.0000000000  Biso 1.0 Y
Y12 1.0000000000 0.0000000000 0.0000000000 0.5000000000  Biso 1.0 Y
Zn13 1.0000000000 0.3750000000 0.3750000000 0.3750000000  Biso 1.0 Zn
Zn14 1.0000000000 0.6250000000 0.6250000000 0.6250000000  Biso 1.0 Zn
