# AFLOW.org Repositories
# Si1   [TET,TET,tP106] (STD_PRIM doi:10.1
data_Si1
_pd_phase_name Si1
_cell_length_a  10.1613860944
_cell_length_b  10.1613860944
_cell_length_c  24.2352446756
_cell_angle_alpha  90.0000000000
_cell_angle_beta  90.0000000000
_cell_angle_gamma  90.0000000000
_symmetry_space_group_name_H-M  'P1'
_symmetry_Int_Tables_Number  1
loop_
_symmetry_equiv_pos_site_id
_symmetry_equiv_pos_as_xyz
  1  x,y,z
loop_
 _atom_site_label
 _atom_site_occupancy
 _atom_site_fract_x
 _atom_site_fract_y
 _atom_site_fract_z
 _atom_site_thermal_displace_type
 _atom_site_B_iso_or_equiv
 _atom_site_type_symbol
Si1 1.0000000000 0.1829298633 0.3157607477 0.4713156927  Biso 1.0 Si
Si2 1.0000000000 0.8170701367 0.6842392523 0.4713156927  Biso 1.0 Si
Si3 1.0000000000 0.1842392523 0.6829298633 0.9713156927  Biso 1.0 Si
Si4 1.0000000000 0.8157607477 0.3170701367 0.9713156927  Biso 1.0 Si
Si5 1.0000000000 0.3170701367 0.8157607477 0.0286843073  Biso 1.0 Si
Si6 1.0000000000 0.6829298633 0.1842392523 0.0286843073  Biso 1.0 Si
Si7 1.0000000000 0.3157607477 0.1829298633 0.5286843073  Biso 1.0 Si
Si8 1.0000000000 0.6842392523 0.8170701367 0.5286843073  Biso 1.0 Si
Si9 1.0000000000 0.3170701367 0.1842392523 0.0286843073  Biso 1.0 Si
Si10 1.0000000000 0.6829298633 0.8157607477 0.0286843073  Biso 1.0 Si
Si11 1.0000000000 0.3157607477 0.8170701367 0.5286843073  Biso 1.0 Si
Si12 1.0000000000 0.6842392523 0.1829298633 0.5286843073  Biso 1.0 Si
Si13 1.0000000000 0.1829298633 0.6842392523 0.4713156927  Biso 1.0 Si
Si14 1.0000000000 0.8170701367 0.3157607477 0.4713156927  Biso 1.0 Si
Si15 1.0000000000 0.1842392523 0.3170701367 0.9713156927  Biso 1.0 Si
Si16 1.0000000000 0.8157607477 0.6829298633 0.9713156927  Biso 1.0 Si
Si17 1.0000000000 0.2064357868 0.1217102804 0.6115296726  Biso 1.0 Si
Si18 1.0000000000 0.7935642132 0.8782897196 0.6115296726  Biso 1.0 Si
Si19 1.0000000000 0.3782897196 0.7064357868 0.1115296726  Biso 1.0 Si
Si20 1.0000000000 0.6217102804 0.2935642132 0.1115296726  Biso 1.0 Si
Si21 1.0000000000 0.2935642132 0.6217102804 0.8884703274  Biso 1.0 Si
Si22 1.0000000000 0.7064357868 0.3782897196 0.8884703274  Biso 1.0 Si
Si23 1.0000000000 0.1217102804 0.2064357868 0.3884703274  Biso 1.0 Si
Si24 1.0000000000 0.8782897196 0.7935642132 0.3884703274  Biso 1.0 Si
Si25 1.0000000000 0.2935642132 0.3782897196 0.8884703274  Biso 1.0 Si
Si26 1.0000000000 0.7064357868 0.6217102804 0.8884703274  Biso 1.0 Si
Si27 1.0000000000 0.1217102804 0.7935642132 0.3884703274  Biso 1.0 Si
Si28 1.0000000000 0.8782897196 0.2064357868 0.3884703274  Biso 1.0 Si
Si29 1.0000000000 0.2064357868 0.8782897196 0.6115296726  Biso 1.0 Si
Si30 1.0000000000 0.7935642132 0.1217102804 0.6115296726  Biso 1.0 Si
Si31 1.0000000000 0.3782897196 0.2935642132 0.1115296726  Biso 1.0 Si
Si32 1.0000000000 0.6217102804 0.7064357868 0.1115296726  Biso 1.0 Si
Si33 1.0000000000 0.3209271618 0.2458931022 0.6830308138  Biso 1.0 Si
Si34 1.0000000000 0.6790728382 0.7541068978 0.6830308138  Biso 1.0 Si
Si35 1.0000000000 0.2541068978 0.8209271618 0.1830308138  Biso 1.0 Si
Si36 1.0000000000 0.7458931022 0.1790728382 0.1830308138  Biso 1.0 Si
Si37 1.0000000000 0.1790728382 0.7458931022 0.8169691862  Biso 1.0 Si
Si38 1.0000000000 0.8209271618 0.2541068978 0.8169691862  Biso 1.0 Si
Si39 1.0000000000 0.2458931022 0.3209271618 0.3169691862  Biso 1.0 Si
Si40 1.0000000000 0.7541068978 0.6790728382 0.3169691862  Biso 1.0 Si
Si41 1.0000000000 0.1790728382 0.2541068978 0.8169691862  Biso 1.0 Si
Si42 1.0000000000 0.8209271618 0.7458931022 0.8169691862  Biso 1.0 Si
Si43 1.0000000000 0.2458931022 0.6790728382 0.3169691862  Biso 1.0 Si
Si44 1.0000000000 0.7541068978 0.3209271618 0.3169691862  Biso 1.0 Si
Si45 1.0000000000 0.3209271618 0.7541068978 0.6830308138  Biso 1.0 Si
Si46 1.0000000000 0.6790728382 0.2458931022 0.6830308138  Biso 1.0 Si
Si47 1.0000000000 0.2541068978 0.1790728382 0.1830308138  Biso 1.0 Si
Si48 1.0000000000 0.7458931022 0.8209271618 0.1830308138  Biso 1.0 Si
Si49 1.0000000000 0.1805209180 0.3825624682 0.7350806458  Biso 1.0 Si
Si50 1.0000000000 0.8194790820 0.6174375318 0.7350806458  Biso 1.0 Si
Si51 1.0000000000 0.1174375318 0.6805209180 0.2350806458  Biso 1.0 Si
Si52 1.0000000000 0.8825624682 0.3194790820 0.2350806458  Biso 1.0 Si
Si53 1.0000000000 0.3194790820 0.8825624682 0.7649193542  Biso 1.0 Si
Si54 1.0000000000 0.6805209180 0.1174375318 0.7649193542  Biso 1.0 Si
Si55 1.0000000000 0.3825624682 0.1805209180 0.2649193542  Biso 1.0 Si
Si56 1.0000000000 0.6174375318 0.8194790820 0.2649193542  Biso 1.0 Si
Si57 1.0000000000 0.3194790820 0.1174375318 0.7649193542  Biso 1.0 Si
Si58 1.0000000000 0.6805209180 0.8825624682 0.7649193542  Biso 1.0 Si
Si59 1.0000000000 0.3825624682 0.8194790820 0.2649193542  Biso 1.0 Si
Si60 1.0000000000 0.6174375318 0.1805209180 0.2649193542  Biso 1.0 Si
Si61 1.0000000000 0.1805209180 0.6174375318 0.7350806458  Biso 1.0 Si
Si62 1.0000000000 0.8194790820 0.3825624682 0.7350806458  Biso 1.0 Si
Si63 1.0000000000 0.1174375318 0.3194790820 0.2350806458  Biso 1.0 Si
Si64 1.0000000000 0.8825624682 0.6805209180 0.2350806458  Biso 1.0 Si
Si65 1.0000000000 0.5000000000 0.3100713638 0.5539001529  Biso 1.0 Si
Si66 1.0000000000 0.5000000000 0.6899286362 0.5539001529  Biso 1.0 Si
Si67 1.0000000000 0.1899286362 0.0000000000 0.0539001529  Biso 1.0 Si
Si68 1.0000000000 0.8100713638 0.0000000000 0.0539001529  Biso 1.0 Si
Si69 1.0000000000 0.0000000000 0.8100713638 0.9460998471  Biso 1.0 Si
Si70 1.0000000000 0.0000000000 0.1899286362 0.9460998471  Biso 1.0 Si
Si71 1.0000000000 0.3100713638 0.5000000000 0.4460998471  Biso 1.0 Si
Si72 1.0000000000 0.6899286362 0.5000000000 0.4460998471  Biso 1.0 Si
Si73 1.0000000000 0.5000000000 0.3715255890 0.6477330856  Biso 1.0 Si
Si74 1.0000000000 0.5000000000 0.6284744110 0.6477330856  Biso 1.0 Si
Si75 1.0000000000 0.1284744110 0.0000000000 0.1477330856  Biso 1.0 Si
Si76 1.0000000000 0.8715255890 0.0000000000 0.1477330856  Biso 1.0 Si
Si77 1.0000000000 0.0000000000 0.8715255890 0.8522669144  Biso 1.0 Si
Si78 1.0000000000 0.0000000000 0.1284744110 0.8522669144  Biso 1.0 Si
Si79 1.0000000000 0.3715255890 0.5000000000 0.3522669144  Biso 1.0 Si
Si80 1.0000000000 0.6284744110 0.5000000000 0.3522669144  Biso 1.0 Si
Si81 1.0000000000 0.0000000000 0.3803028058 0.5248720894  Biso 1.0 Si
Si82 1.0000000000 0.0000000000 0.6196971942 0.5248720894  Biso 1.0 Si
Si83 1.0000000000 0.1196971942 0.5000000000 0.0248720894  Biso 1.0 Si
Si84 1.0000000000 0.8803028058 0.5000000000 0.0248720894  Biso 1.0 Si
Si85 1.0000000000 0.5000000000 0.8803028058 0.9751279106  Biso 1.0 Si
Si86 1.0000000000 0.5000000000 0.1196971942 0.9751279106  Biso 1.0 Si
Si87 1.0000000000 0.3803028058 0.0000000000 0.4751279106  Biso 1.0 Si
Si88 1.0000000000 0.6196971942 0.0000000000 0.4751279106  Biso 1.0 Si
Si89 1.0000000000 0.0000000000 0.2345385491 0.6034197466  Biso 1.0 Si
Si90 1.0000000000 0.0000000000 0.7654614509 0.6034197466  Biso 1.0 Si
Si91 1.0000000000 0.2654614509 0.5000000000 0.1034197466  Biso 1.0 Si
Si92 1.0000000000 0.7345385491 0.5000000000 0.1034197466  Biso 1.0 Si
Si93 1.0000000000 0.5000000000 0.7345385491 0.8965802534  Biso 1.0 Si
Si94 1.0000000000 0.5000000000 0.2654614509 0.8965802534  Biso 1.0 Si
Si95 1.0000000000 0.2345385491 0.0000000000 0.3965802534  Biso 1.0 Si
Si96 1.0000000000 0.7654614509 0.0000000000 0.3965802534  Biso 1.0 Si
Si97 1.0000000000 0.0000000000 0.3833247520 0.6768067489  Biso 1.0 Si
Si98 1.0000000000 0.0000000000 0.6166752480 0.6768067489  Biso 1.0 Si
Si99 1.0000000000 0.1166752480 0.5000000000 0.1768067489  Biso 1.0 Si
Si100 1.0000000000 0.8833247520 0.5000000000 0.1768067489  Biso 1.0 Si
Si101 1.0000000000 0.5000000000 0.8833247520 0.8231932511  Biso 1.0 Si
Si102 1.0000000000 0.5000000000 0.1166752480 0.8231932511  Biso 1.0 Si
Si103 1.0000000000 0.3833247520 0.0000000000 0.3231932511  Biso 1.0 Si
Si104 1.0000000000 0.6166752480 0.0000000000 0.3231932511  Biso 1.0 Si
Si105 1.0000000000 0.0000000000 0.0000000000 0.0000000000  Biso 1.0 Si
Si106 1.0000000000 0.5000000000 0.5000000000 0.5000000000  Biso 1.0 Si
