# AFLOW.org Repositories
# Si1   [HEX,HEX,hP40] (STD_PRIM doi:10.10
data_Si1
_pd_phase_name Si1
_cell_length_a  10.2149093402
_cell_length_b  10.2149093402
_cell_length_c  10.3843362977
_cell_angle_alpha  90.0000000000
_cell_angle_beta  90.0000000000
_cell_angle_gamma  120.0000000000
_symmetry_space_group_name_H-M  'P1'
_symmetry_Int_Tables_Number  1
loop_
_symmetry_equiv_pos_site_id
_symmetry_equiv_pos_as_xyz
  1  x,y,z
loop_
 _atom_site_label
 _atom_site_occupancy
 _atom_site_fract_x
 _atom_site_fract_y
 _atom_site_fract_z
 _atom_site_thermal_displace_type
 _atom_site_B_iso_or_equiv
 _atom_site_type_symbol
Si1 1.0000000000 0.2906084599 0.2093972056 0.6878096372  Biso 1.0 Si
Si2 1.0000000000 0.7093915401 0.7906027944 0.6878096372  Biso 1.0 Si
Si3 1.0000000000 0.0812112544 0.7906027944 0.3121903628  Biso 1.0 Si
Si4 1.0000000000 0.9187887456 0.2093972056 0.3121903628  Biso 1.0 Si
Si5 1.0000000000 0.7093915401 0.7906027944 0.3121903628  Biso 1.0 Si
Si6 1.0000000000 0.2906084599 0.2093972056 0.3121903628  Biso 1.0 Si
Si7 1.0000000000 0.9187887456 0.2093972056 0.6878096372  Biso 1.0 Si
Si8 1.0000000000 0.0812112544 0.7906027944 0.6878096372  Biso 1.0 Si
Si9 1.0000000000 0.1194800910 0.6194861365 0.8132309857  Biso 1.0 Si
Si10 1.0000000000 0.8805199090 0.3805138635 0.8132309857  Biso 1.0 Si
Si11 1.0000000000 0.4999939545 0.3805138635 0.1867690143  Biso 1.0 Si
Si12 1.0000000000 0.5000060455 0.6194861365 0.1867690143  Biso 1.0 Si
Si13 1.0000000000 0.8805199090 0.3805138635 0.1867690143  Biso 1.0 Si
Si14 1.0000000000 0.1194800910 0.6194861365 0.1867690143  Biso 1.0 Si
Si15 1.0000000000 0.5000060455 0.6194861365 0.8132309857  Biso 1.0 Si
Si16 1.0000000000 0.4999939545 0.3805138635 0.8132309857  Biso 1.0 Si
Si17 1.0000000000 0.1194800660 0.0000000000 0.8132229504  Biso 1.0 Si
Si18 1.0000000000 0.8805199340 0.0000000000 0.8132229504  Biso 1.0 Si
Si19 1.0000000000 0.1194800660 0.0000000000 0.1867770496  Biso 1.0 Si
Si20 1.0000000000 0.8805199340 0.0000000000 0.1867770496  Biso 1.0 Si
Si21 1.0000000000 0.3674725407 0.7349450815 0.5000000000  Biso 1.0 Si
Si22 1.0000000000 0.6325274593 0.2650549185 0.5000000000  Biso 1.0 Si
Si23 1.0000000000 0.2906390886 0.5812781771 0.6878124956  Biso 1.0 Si
Si24 1.0000000000 0.7093609114 0.4187218229 0.6878124956  Biso 1.0 Si
Si25 1.0000000000 0.7093609114 0.4187218229 0.3121875044  Biso 1.0 Si
Si26 1.0000000000 0.2906390886 0.5812781771 0.3121875044  Biso 1.0 Si
Si27 1.0000000000 0.1666889690 0.3333779380 0.6122857068  Biso 1.0 Si
Si28 1.0000000000 0.8333110310 0.6666220620 0.6122857068  Biso 1.0 Si
Si29 1.0000000000 0.8333110310 0.6666220620 0.3877142932  Biso 1.0 Si
Si30 1.0000000000 0.1666889690 0.3333779380 0.3877142932  Biso 1.0 Si
Si31 1.0000000000 0.3674254038 0.1325536918 0.5000000000  Biso 1.0 Si
Si32 1.0000000000 0.6325745962 0.8674463082 0.5000000000  Biso 1.0 Si
Si33 1.0000000000 0.2348717121 0.8674463082 0.5000000000  Biso 1.0 Si
Si34 1.0000000000 0.7651282879 0.1325536918 0.5000000000  Biso 1.0 Si
Si35 1.0000000000 0.2577974034 0.0000000000 0.0000000000  Biso 1.0 Si
Si36 1.0000000000 0.7422025966 0.0000000000 0.0000000000  Biso 1.0 Si
Si37 1.0000000000 0.2578005530 0.7578029220 0.0000000000  Biso 1.0 Si
Si38 1.0000000000 0.7421994470 0.2421970780 0.0000000000  Biso 1.0 Si
Si39 1.0000000000 0.4999976310 0.2421970780 0.0000000000  Biso 1.0 Si
Si40 1.0000000000 0.5000023690 0.7578029220 0.0000000000  Biso 1.0 Si
