# AFLOW.org Repositories
# Si1Tc1   [CUB,CUB,cP8] (STD_PRIM doi:10.
data_Si1Tc1
_pd_phase_name Si1Tc1
_cell_length_a  4.7860177257
_cell_length_b  4.7860177257
_cell_length_c  4.7860177257
_cell_angle_alpha  90.0000000000
_cell_angle_beta  90.0000000000
_cell_angle_gamma  90.0000000000
_symmetry_space_group_name_H-M  'P1'
_symmetry_Int_Tables_Number  1
loop_
_symmetry_equiv_pos_site_id
_symmetry_equiv_pos_as_xyz
  1  x,y,z
loop_
 _atom_site_label
 _atom_site_occupancy
 _atom_site_fract_x
 _atom_site_fract_y
 _atom_site_fract_z
 _atom_site_thermal_displace_type
 _atom_site_B_iso_or_equiv
 _atom_site_type_symbol
Si1 1.0000000000 0.1549224344 0.1549224344 0.8450775656  Biso 1.0 Si
Si2 1.0000000000 0.3450775656 0.8450775656 0.3450775656  Biso 1.0 Si
Si3 1.0000000000 0.8450775656 0.6549224344 0.6549224344  Biso 1.0 Si
Si4 1.0000000000 0.6549224344 0.3450775656 0.1549224344  Biso 1.0 Si
Tc5 1.0000000000 0.8655539112 0.8655539112 0.1344460888  Biso 1.0 Tc
Tc6 1.0000000000 0.6344460888 0.1344460888 0.6344460888  Biso 1.0 Tc
Tc7 1.0000000000 0.1344460888 0.3655539112 0.3655539112  Biso 1.0 Tc
Tc8 1.0000000000 0.3655539112 0.6344460888 0.8655539112  Biso 1.0 Tc
