# AFLOW.org Repositories
# Si1Th1   [ORC,ORC,oP8] (STD_PRIM doi:10.
data_Si1Th1
_pd_phase_name Si1Th1
_cell_length_a  4.2149478160
_cell_length_b  6.0150463930
_cell_length_c  8.0419875783
_cell_angle_alpha  90.0000000000
_cell_angle_beta  90.0000000000
_cell_angle_gamma  90.0000000000
_symmetry_space_group_name_H-M  'P1'
_symmetry_Int_Tables_Number  1
loop_
_symmetry_equiv_pos_site_id
_symmetry_equiv_pos_as_xyz
  1  x,y,z
loop_
 _atom_site_label
 _atom_site_occupancy
 _atom_site_fract_x
 _atom_site_fract_y
 _atom_site_fract_z
 _atom_site_thermal_displace_type
 _atom_site_B_iso_or_equiv
 _atom_site_type_symbol
Si1 1.0000000000 0.7500000000 0.3756063186 0.0377775963  Biso 1.0 Si
Si2 1.0000000000 0.2500000000 0.8756063186 0.4622224037  Biso 1.0 Si
Si3 1.0000000000 0.2500000000 0.6243936814 0.9622224037  Biso 1.0 Si
Si4 1.0000000000 0.7500000000 0.1243936814 0.5377775963  Biso 1.0 Si
Th5 1.0000000000 0.7500000000 0.8772123648 0.1783502415  Biso 1.0 Th
Th6 1.0000000000 0.2500000000 0.3772123648 0.3216497585  Biso 1.0 Th
Th7 1.0000000000 0.2500000000 0.1227876352 0.8216497585  Biso 1.0 Th
Th8 1.0000000000 0.7500000000 0.6227876352 0.6783502415  Biso 1.0 Th
