# AFLOW.org Repositories
# Si1Ti1   [ORC,ORC,oP8] (STD_PRIM doi:10.
data_Si1Ti1
_pd_phase_name Si1Ti1
_cell_length_a  3.6841503863
_cell_length_b  5.0731837784
_cell_length_c  6.6359801480
_cell_angle_alpha  90.0000000000
_cell_angle_beta  90.0000000000
_cell_angle_gamma  90.0000000000
_symmetry_space_group_name_H-M  'P1'
_symmetry_Int_Tables_Number  1
loop_
_symmetry_equiv_pos_site_id
_symmetry_equiv_pos_as_xyz
  1  x,y,z
loop_
 _atom_site_label
 _atom_site_occupancy
 _atom_site_fract_x
 _atom_site_fract_y
 _atom_site_fract_z
 _atom_site_thermal_displace_type
 _atom_site_B_iso_or_equiv
 _atom_site_type_symbol
Si1 1.0000000000 0.7500000000 0.3561692627 0.0442699465  Biso 1.0 Si
Si2 1.0000000000 0.2500000000 0.8561692627 0.4557300535  Biso 1.0 Si
Si3 1.0000000000 0.2500000000 0.6438307373 0.9557300535  Biso 1.0 Si
Si4 1.0000000000 0.7500000000 0.1438307373 0.5442699465  Biso 1.0 Si
Ti5 1.0000000000 0.7500000000 0.8725962741 0.1754961698  Biso 1.0 Ti
Ti6 1.0000000000 0.2500000000 0.3725962741 0.3245038302  Biso 1.0 Ti
Ti7 1.0000000000 0.2500000000 0.1274037259 0.8245038302  Biso 1.0 Ti
Ti8 1.0000000000 0.7500000000 0.6274037259 0.6754961698  Biso 1.0 Ti
