# AFLOW.org Repositories
# Si3Zr5   [HEX,HEX,hP16] (STD_PRIM doi:10
data_Si3Zr5
_pd_phase_name Si3Zr5
_cell_length_a  8.0105587065
_cell_length_b  8.0105587065
_cell_length_c  5.5856070959
_cell_angle_alpha  90.0000000000
_cell_angle_beta  90.0000000000
_cell_angle_gamma  120.0000000000
_symmetry_space_group_name_H-M  'P1'
_symmetry_Int_Tables_Number  1
loop_
_symmetry_equiv_pos_site_id
_symmetry_equiv_pos_as_xyz
  1  x,y,z
loop_
 _atom_site_label
 _atom_site_occupancy
 _atom_site_fract_x
 _atom_site_fract_y
 _atom_site_fract_z
 _atom_site_thermal_displace_type
 _atom_site_B_iso_or_equiv
 _atom_site_type_symbol
Si1 1.0000000000 0.0000000000 0.3892166195 0.2500000000  Biso 1.0 Si
Si2 1.0000000000 0.6107833805 0.6107833805 0.2500000000  Biso 1.0 Si
Si3 1.0000000000 0.3892165914 0.0000000000 0.2500000000  Biso 1.0 Si
Si4 1.0000000000 0.0000000000 0.6107833805 0.7500000000  Biso 1.0 Si
Si5 1.0000000000 0.3892166195 0.3892166195 0.7500000000  Biso 1.0 Si
Si6 1.0000000000 0.6107834086 0.0000000000 0.7500000000  Biso 1.0 Si
Zr7 1.0000000000 0.6666674163 0.3333348325 0.0000000000  Biso 1.0 Zr
Zr8 1.0000000000 0.3333325837 0.6666651675 0.5000000000  Biso 1.0 Zr
Zr9 1.0000000000 0.3333325837 0.6666651675 0.0000000000  Biso 1.0 Zr
Zr10 1.0000000000 0.6666674163 0.3333348325 0.5000000000  Biso 1.0 Zr
Zr11 1.0000000000 0.0000000000 0.7460272907 0.2500000000  Biso 1.0 Zr
Zr12 1.0000000000 0.2539727093 0.2539727093 0.2500000000  Biso 1.0 Zr
Zr13 1.0000000000 0.7460253502 0.0000000000 0.2500000000  Biso 1.0 Zr
Zr14 1.0000000000 0.0000000000 0.2539727093 0.7500000000  Biso 1.0 Zr
Zr15 1.0000000000 0.7460272907 0.7460272907 0.7500000000  Biso 1.0 Zr
Zr16 1.0000000000 0.2539746498 0.0000000000 0.7500000000  Biso 1.0 Zr
