# AFLOW.org Repositories
# Sn2Tb1   [ORCC,ORCC,oS12] (STD_PRIM doi:
data_Sn2Tb1
_pd_phase_name Sn2Tb1
_cell_length_a  8.5973190080
_cell_length_b  8.5973190080
_cell_length_c  4.4182129956
_cell_angle_alpha  90.0000000000
_cell_angle_beta  90.0000000000
_cell_angle_gamma  149.8680505023
_symmetry_space_group_name_H-M  'P1'
_symmetry_Int_Tables_Number  1
loop_
_symmetry_equiv_pos_site_id
_symmetry_equiv_pos_as_xyz
  1  x,y,z
loop_
 _atom_site_label
 _atom_site_occupancy
 _atom_site_fract_x
 _atom_site_fract_y
 _atom_site_fract_z
 _atom_site_thermal_displace_type
 _atom_site_B_iso_or_equiv
 _atom_site_type_symbol
Sn1 1.0000000000 0.5640780183 0.4359219817 0.7500000000  Biso 1.0 Sn
Sn2 1.0000000000 0.4359219817 0.5640780183 0.2500000000  Biso 1.0 Sn
Sn3 1.0000000000 0.2513309253 0.7486690747 0.7500000000  Biso 1.0 Sn
Sn4 1.0000000000 0.7486690747 0.2513309253 0.2500000000  Biso 1.0 Sn
Tb5 1.0000000000 0.9011821860 0.0988178140 0.7500000000  Biso 1.0 Tb
Tb6 1.0000000000 0.0988178140 0.9011821860 0.2500000000  Biso 1.0 Tb
