# AFLOW.org Repositories
# Sn2Th1   [ORCC,ORCC,oS12] (STD_PRIM doi:
data_Sn2Th1
_pd_phase_name Sn2Th1
_cell_length_a  9.0663208702
_cell_length_b  9.0663208702
_cell_length_c  4.4979830132
_cell_angle_alpha  90.0000000000
_cell_angle_beta  90.0000000000
_cell_angle_gamma  150.8228009788
_symmetry_space_group_name_H-M  'P1'
_symmetry_Int_Tables_Number  1
loop_
_symmetry_equiv_pos_site_id
_symmetry_equiv_pos_as_xyz
  1  x,y,z
loop_
 _atom_site_label
 _atom_site_occupancy
 _atom_site_fract_x
 _atom_site_fract_y
 _atom_site_fract_z
 _atom_site_thermal_displace_type
 _atom_site_B_iso_or_equiv
 _atom_site_type_symbol
Sn1 1.0000000000 0.2504639226 0.7495360774 0.2500000000  Biso 1.0 Sn
Sn2 1.0000000000 0.7495360774 0.2504639226 0.7500000000  Biso 1.0 Sn
Sn3 1.0000000000 0.5615284828 0.4384715172 0.2500000000  Biso 1.0 Sn
Sn4 1.0000000000 0.4384715172 0.5615284828 0.7500000000  Biso 1.0 Sn
Th5 1.0000000000 0.8966914610 0.1033085390 0.2500000000  Biso 1.0 Th
Th6 1.0000000000 0.1033085390 0.8966914610 0.7500000000  Biso 1.0 Th
