# AFLOW.org Repositories
# V2Zr1   [FCC,FCC,cF24] (STD_PRIM doi:10.
data_V2Zr1
_pd_phase_name V2Zr1
_cell_length_a  5.2367937867
_cell_length_b  5.2367937867
_cell_length_c  5.2367937867
_cell_angle_alpha  60.0000000000
_cell_angle_beta  60.0000000000
_cell_angle_gamma  60.0000000000
_symmetry_space_group_name_H-M  'P1'
_symmetry_Int_Tables_Number  1
loop_
_symmetry_equiv_pos_site_id
_symmetry_equiv_pos_as_xyz
  1  x,y,z
loop_
 _atom_site_label
 _atom_site_occupancy
 _atom_site_fract_x
 _atom_site_fract_y
 _atom_site_fract_z
 _atom_site_thermal_displace_type
 _atom_site_B_iso_or_equiv
 _atom_site_type_symbol
V1 1.0000000000 0.6250000000 0.6250000000 0.6250000000  Biso 1.0 V
V2 1.0000000000 0.6250000000 0.6250000000 0.1250000000  Biso 1.0 V
V3 1.0000000000 0.6250000000 0.1250000000 0.6250000000  Biso 1.0 V
V4 1.0000000000 0.1250000000 0.6250000000 0.6250000000  Biso 1.0 V
Zr5 1.0000000000 0.0000000000 0.0000000000 0.0000000000  Biso 1.0 Zr
Zr6 1.0000000000 0.2500000000 0.2500000000 0.2500000000  Biso 1.0 Zr
