# AFLOW.org Repositories
# Ag1Al1S2   [HEX,HEX,hP4] (STD_PRIM doi:1
data_Ag1Al1S2
_pd_phase_name Ag1Al1S2
_cell_length_a  3.5495213737
_cell_length_b  3.5495213737
_cell_length_c  6.9308822914
_cell_angle_alpha  90.0000000000
_cell_angle_beta  90.0000000000
_cell_angle_gamma  120.0000000000
_symmetry_space_group_name_H-M  'P1'
_symmetry_Int_Tables_Number  1
loop_
_symmetry_equiv_pos_site_id
_symmetry_equiv_pos_as_xyz
  1  x,y,z
loop_
 _atom_site_label
 _atom_site_occupancy
 _atom_site_fract_x
 _atom_site_fract_y
 _atom_site_fract_z
 _atom_site_thermal_displace_type
 _atom_site_B_iso_or_equiv
 _atom_site_type_symbol
Ag1 1.0000000000 0.3333966154 0.6666983077 0.5442135372  Biso 1.0 Ag
Al2 1.0000000000 0.0000000000 0.0000000000 0.0073695429  Biso 1.0 Al
S3 1.0000000000 0.3333698261 0.6666849131 0.1869949929  Biso 1.0 S
S4 1.0000000000 0.6666235032 0.3333117516 0.8064219270  Biso 1.0 S
