# AFLOW.org Repositories
# Ag1As1S1   [ORC,ORC,oP12] (STD_PRIM doi:
data_Ag1As1S1
_pd_phase_name Ag1As1S1
_cell_length_a  3.9470550741
_cell_length_b  6.1996721241
_cell_length_c  12.1597992978
_cell_angle_alpha  90.0000000000
_cell_angle_beta  90.0000000000
_cell_angle_gamma  90.0000000000
_symmetry_space_group_name_H-M  'P1'
_symmetry_Int_Tables_Number  1
loop_
_symmetry_equiv_pos_site_id
_symmetry_equiv_pos_as_xyz
  1  x,y,z
loop_
 _atom_site_label
 _atom_site_occupancy
 _atom_site_fract_x
 _atom_site_fract_y
 _atom_site_fract_z
 _atom_site_thermal_displace_type
 _atom_site_B_iso_or_equiv
 _atom_site_type_symbol
Ag1 1.0000000000 0.2480663638 0.5606549246 0.3300357504  Biso 1.0 Ag
Ag2 1.0000000000 0.7480663638 0.4393450754 0.6699642496  Biso 1.0 Ag
Ag3 1.0000000000 0.2480663638 0.9393450754 0.8300357504  Biso 1.0 Ag
Ag4 1.0000000000 0.7480663638 0.0606549246 0.1699642496  Biso 1.0 Ag
As5 1.0000000000 0.2470211370 0.8673295555 0.4882422623  Biso 1.0 As
As6 1.0000000000 0.7470211370 0.1326704445 0.5117577377  Biso 1.0 As
As7 1.0000000000 0.2470211370 0.6326704445 0.9882422623  Biso 1.0 As
As8 1.0000000000 0.7470211370 0.3673295555 0.0117577377  Biso 1.0 As
S9 1.0000000000 0.2479124992 0.7905368618 0.1535343825  Biso 1.0 S
S10 1.0000000000 0.7479124992 0.2094631382 0.8464656175  Biso 1.0 S
S11 1.0000000000 0.2479124992 0.7094631382 0.6535343825  Biso 1.0 S
S12 1.0000000000 0.7479124992 0.2905368618 0.3464656175  Biso 1.0 S
