# AFLOW.org Repositories
# Ag1Al1O2   [ORC,ORC,oP16] (STD_PRIM doi:
data_Ag1Al1O2
_pd_phase_name Ag1Al1O2
_cell_length_a  5.4490457649
_cell_length_b  5.4831113975
_cell_length_c  7.0776387132
_cell_angle_alpha  90.0000000000
_cell_angle_beta  90.0000000000
_cell_angle_gamma  90.0000000000
_symmetry_space_group_name_H-M  'P1'
_symmetry_Int_Tables_Number  1
loop_
_symmetry_equiv_pos_site_id
_symmetry_equiv_pos_as_xyz
  1  x,y,z
loop_
 _atom_site_label
 _atom_site_occupancy
 _atom_site_fract_x
 _atom_site_fract_y
 _atom_site_fract_z
 _atom_site_thermal_displace_type
 _atom_site_B_iso_or_equiv
 _atom_site_type_symbol
Ag1 1.0000000000 0.9970403506 0.9356812183 0.3689484975  Biso 1.0 Ag
Ag2 1.0000000000 0.4970403506 0.0643187817 0.6310515025  Biso 1.0 Ag
Ag3 1.0000000000 0.9970403506 0.4356812183 0.1310515025  Biso 1.0 Ag
Ag4 1.0000000000 0.4970403506 0.5643187817 0.8689484975  Biso 1.0 Ag
Al5 1.0000000000 0.0011094547 0.9365182626 0.8747511332  Biso 1.0 Al
Al6 1.0000000000 0.5011094547 0.0634817374 0.1252488668  Biso 1.0 Al
Al7 1.0000000000 0.0011094547 0.4365182626 0.6252488668  Biso 1.0 Al
Al8 1.0000000000 0.5011094547 0.5634817374 0.3747511332  Biso 1.0 Al
O9 1.0000000000 0.3164887151 0.9710082204 0.9322346414  Biso 1.0 O
O10 1.0000000000 0.8164887151 0.0289917796 0.0677653586  Biso 1.0 O
O11 1.0000000000 0.3164887151 0.4710082204 0.5677653586  Biso 1.0 O
O12 1.0000000000 0.8164887151 0.5289917796 0.4322346414  Biso 1.0 O
O13 1.0000000000 0.4374614797 0.8749991413 0.3244366166  Biso 1.0 O
O14 1.0000000000 0.9374614797 0.1250008587 0.6755633834  Biso 1.0 O
O15 1.0000000000 0.4374614797 0.3749991413 0.1755633834  Biso 1.0 O
O16 1.0000000000 0.9374614797 0.6250008587 0.8244366166  Biso 1.0 O
