# AFLOW.org Repositories
# Ag1Au1F4   [BCT,BCT2,tI24] (STD_PRIM doi
data_Ag1Au1F4
_pd_phase_name Ag1Au1F4
_cell_length_a  6.9104515168
_cell_length_b  6.9104515168
_cell_length_c  6.9104515168
_cell_angle_alpha  129.8866848781
_cell_angle_beta  129.8866848781
_cell_angle_gamma  73.5879825344
_symmetry_space_group_name_H-M  'P1'
_symmetry_Int_Tables_Number  1
loop_
_symmetry_equiv_pos_site_id
_symmetry_equiv_pos_as_xyz
  1  x,y,z
loop_
 _atom_site_label
 _atom_site_occupancy
 _atom_site_fract_x
 _atom_site_fract_y
 _atom_site_fract_z
 _atom_site_thermal_displace_type
 _atom_site_B_iso_or_equiv
 _atom_site_type_symbol
Ag1 1.0000000000 0.7500000000 0.7500000000 0.0000000000  Biso 1.0 Ag
Ag2 1.0000000000 0.2500000000 0.2500000000 0.0000000000  Biso 1.0 Ag
Au3 1.0000000000 0.5000000000 0.0000000000 0.5000000000  Biso 1.0 Au
Au4 1.0000000000 0.0000000000 0.5000000000 0.5000000000  Biso 1.0 Au
F5 1.0000000000 0.7945278328 0.9538077935 0.5000000000  Biso 1.0 F
F6 1.0000000000 0.4538077935 0.2945278328 0.5000000000  Biso 1.0 F
F7 1.0000000000 0.2945278328 0.7945278328 0.8407200392  Biso 1.0 F
F8 1.0000000000 0.9538077935 0.4538077935 0.1592799608  Biso 1.0 F
F9 1.0000000000 0.0461922065 0.5461922065 0.8407200392  Biso 1.0 F
F10 1.0000000000 0.7054721672 0.2054721672 0.1592799608  Biso 1.0 F
F11 1.0000000000 0.5461922065 0.7054721672 0.5000000000  Biso 1.0 F
F12 1.0000000000 0.2054721672 0.0461922065 0.5000000000  Biso 1.0 F
