# AFLOW.org Repositories
# Ag1Ca1Sb1   [ORC,ORC,oP12] (STD_PRIM doi
data_Ag1Ca1Sb1
_pd_phase_name Ag1Ca1Sb1
_cell_length_a  4.6235428937
_cell_length_b  7.7561446151
_cell_length_c  8.6011371191
_cell_angle_alpha  90.0000000000
_cell_angle_beta  90.0000000000
_cell_angle_gamma  90.0000000000
_symmetry_space_group_name_H-M  'P1'
_symmetry_Int_Tables_Number  1
loop_
_symmetry_equiv_pos_site_id
_symmetry_equiv_pos_as_xyz
  1  x,y,z
loop_
 _atom_site_label
 _atom_site_occupancy
 _atom_site_fract_x
 _atom_site_fract_y
 _atom_site_fract_z
 _atom_site_thermal_displace_type
 _atom_site_B_iso_or_equiv
 _atom_site_type_symbol
Ag1 1.0000000000 0.2500000000 0.1411193386 0.9352756403  Biso 1.0 Ag
Ag2 1.0000000000 0.7500000000 0.3588806614 0.4352756403  Biso 1.0 Ag
Ag3 1.0000000000 0.7500000000 0.8588806614 0.0647243597  Biso 1.0 Ag
Ag4 1.0000000000 0.2500000000 0.6411193386 0.5647243597  Biso 1.0 Ag
Ca5 1.0000000000 0.2500000000 0.0241483101 0.3062771230  Biso 1.0 Ca
Ca6 1.0000000000 0.7500000000 0.4758516899 0.8062771230  Biso 1.0 Ca
Ca7 1.0000000000 0.7500000000 0.9758516899 0.6937228770  Biso 1.0 Ca
Ca8 1.0000000000 0.2500000000 0.5241483101 0.1937228770  Biso 1.0 Ca
Sb9 1.0000000000 0.2500000000 0.2551671209 0.6148701538  Biso 1.0 Sb
Sb10 1.0000000000 0.7500000000 0.2448328791 0.1148701538  Biso 1.0 Sb
Sb11 1.0000000000 0.7500000000 0.7448328791 0.3851298462  Biso 1.0 Sb
Sb12 1.0000000000 0.2500000000 0.7551671209 0.8851298462  Biso 1.0 Sb
