# AFLOW.org Repositories
# Ag1Cr2Te4   [FCC,FCC,cF56] (STD_PRIM doi
data_Ag1Cr2Te4
_pd_phase_name Ag1Cr2Te4
_cell_length_a  8.2606997799
_cell_length_b  8.2606997799
_cell_length_c  8.2606997799
_cell_angle_alpha  60.0000000000
_cell_angle_beta  60.0000000000
_cell_angle_gamma  60.0000000000
_symmetry_space_group_name_H-M  'P1'
_symmetry_Int_Tables_Number  1
loop_
_symmetry_equiv_pos_site_id
_symmetry_equiv_pos_as_xyz
  1  x,y,z
loop_
 _atom_site_label
 _atom_site_occupancy
 _atom_site_fract_x
 _atom_site_fract_y
 _atom_site_fract_z
 _atom_site_thermal_displace_type
 _atom_site_B_iso_or_equiv
 _atom_site_type_symbol
Ag1 1.0000000000 0.8750000000 0.3750000000 0.8750000000  Biso 1.0 Ag
Ag2 1.0000000000 0.1250000000 0.6250000000 0.1250000000  Biso 1.0 Ag
Cr3 1.0000000000 0.5000000000 0.5000000000 0.5000000000  Biso 1.0 Cr
Cr4 1.0000000000 0.5000000000 0.0000000000 0.0000000000  Biso 1.0 Cr
Cr5 1.0000000000 0.5000000000 0.0000000000 0.5000000000  Biso 1.0 Cr
Cr6 1.0000000000 0.0000000000 0.0000000000 0.5000000000  Biso 1.0 Cr
Te7 1.0000000000 0.7374343827 0.7876968518 0.7374343827  Biso 1.0 Te
Te8 1.0000000000 0.7374343827 0.2374343827 0.2876968518  Biso 1.0 Te
Te9 1.0000000000 0.7374343827 0.2374343827 0.7374343827  Biso 1.0 Te
Te10 1.0000000000 0.2876968518 0.2374343827 0.7374343827  Biso 1.0 Te
Te11 1.0000000000 0.2625656173 0.7625656173 0.7123031482  Biso 1.0 Te
Te12 1.0000000000 0.2625656173 0.2123031482 0.2625656173  Biso 1.0 Te
Te13 1.0000000000 0.2625656173 0.7625656173 0.2625656173  Biso 1.0 Te
Te14 1.0000000000 0.7123031482 0.7625656173 0.2625656173  Biso 1.0 Te
