# AFLOW.org Repositories
# Ag1Cl1   [MCL,MCL,mP4] (STD_PRIM doi:10.
data_Ag1Cl1
_pd_phase_name Ag1Cl1
_cell_length_a  3.9868786652
_cell_length_b  3.9556668450
_cell_length_c  5.6181725300
_cell_angle_alpha  89.5131429504
_cell_angle_beta  90.0000000000
_cell_angle_gamma  90.0000000000
_symmetry_space_group_name_H-M  'P1'
_symmetry_Int_Tables_Number  1
loop_
_symmetry_equiv_pos_site_id
_symmetry_equiv_pos_as_xyz
  1  x,y,z
loop_
 _atom_site_label
 _atom_site_occupancy
 _atom_site_fract_x
 _atom_site_fract_y
 _atom_site_fract_z
 _atom_site_thermal_displace_type
 _atom_site_B_iso_or_equiv
 _atom_site_type_symbol
Ag1 1.0000000000 0.2500000000 0.7630171516 0.2515938059  Biso 1.0 Ag
Ag2 1.0000000000 0.7500000000 0.2369828484 0.7484061941  Biso 1.0 Ag
Cl3 1.0000000000 0.2500000000 0.7407405083 0.7508548600  Biso 1.0 Cl
Cl4 1.0000000000 0.7500000000 0.2592594917 0.2491451400  Biso 1.0 Cl
