# AFLOW.org Repositories
# Ag1Cu4Nd1   [FCC,FCC,cF24] (STD_PRIM doi
data_Ag1Cu4Nd1
_pd_phase_name Ag1Cu4Nd1
_cell_length_a  5.1737410411
_cell_length_b  5.1737410411
_cell_length_c  5.1737410411
_cell_angle_alpha  60.0000000000
_cell_angle_beta  60.0000000000
_cell_angle_gamma  60.0000000000
_symmetry_space_group_name_H-M  'P1'
_symmetry_Int_Tables_Number  1
loop_
_symmetry_equiv_pos_site_id
_symmetry_equiv_pos_as_xyz
  1  x,y,z
loop_
 _atom_site_label
 _atom_site_occupancy
 _atom_site_fract_x
 _atom_site_fract_y
 _atom_site_fract_z
 _atom_site_thermal_displace_type
 _atom_site_B_iso_or_equiv
 _atom_site_type_symbol
Ag1 1.0000000000 0.7500000000 0.7500000000 0.7500000000  Biso 1.0 Ag
Cu2 1.0000000000 0.3769816255 0.8690551234 0.3769816255  Biso 1.0 Cu
Cu3 1.0000000000 0.8690551234 0.3769816255 0.3769816255  Biso 1.0 Cu
Cu4 1.0000000000 0.3769816255 0.3769816255 0.8690551234  Biso 1.0 Cu
Cu5 1.0000000000 0.3769816255 0.3769816255 0.3769816255  Biso 1.0 Cu
Nd6 1.0000000000 0.0000000000 0.0000000000 0.0000000000  Biso 1.0 Nd
