# AFLOW.org Repositories
# Ag1Dy1Se2   [BCT,BCT2,tI16] (STD_PRIM do
data_Ag1Dy1Se2
_pd_phase_name Ag1Dy1Se2
_cell_length_a  7.4185691685
_cell_length_b  7.4185691685
_cell_length_c  7.4185691685
_cell_angle_alpha  134.9126557830
_cell_angle_beta  134.9126557830
_cell_angle_gamma  65.6659429902
_symmetry_space_group_name_H-M  'P1'
_symmetry_Int_Tables_Number  1
loop_
_symmetry_equiv_pos_site_id
_symmetry_equiv_pos_as_xyz
  1  x,y,z
loop_
 _atom_site_label
 _atom_site_occupancy
 _atom_site_fract_x
 _atom_site_fract_y
 _atom_site_fract_z
 _atom_site_thermal_displace_type
 _atom_site_B_iso_or_equiv
 _atom_site_type_symbol
Ag1 1.0000000000 0.5394901900 0.5394901900 0.0000000000  Biso 1.0 Ag
Ag2 1.0000000000 0.7894901900 0.2894901900 0.5000000000  Biso 1.0 Ag
Dy3 1.0000000000 0.0012791049 0.0012791049 0.0000000000  Biso 1.0 Dy
Dy4 1.0000000000 0.2512791049 0.7512791049 0.5000000000  Biso 1.0 Dy
Se5 1.0000000000 0.2302960025 0.2302960025 0.0000000000  Biso 1.0 Se
Se6 1.0000000000 0.4802960025 0.9802960025 0.5000000000  Biso 1.0 Se
Se7 1.0000000000 0.7689347026 0.7689347026 0.0000000000  Biso 1.0 Se
Se8 1.0000000000 0.0189347026 0.5189347026 0.5000000000  Biso 1.0 Se
