# AFLOW.org Repositories
# Ag1Dy1Se2   [ORC,ORC,oP16] (STD_PRIM doi
data_Ag1Dy1Se2
_pd_phase_name Ag1Dy1Se2
_cell_length_a  4.2359377538
_cell_length_b  6.9360282014
_cell_length_c  13.8777364728
_cell_angle_alpha  90.0000000000
_cell_angle_beta  90.0000000000
_cell_angle_gamma  90.0000000000
_symmetry_space_group_name_H-M  'P1'
_symmetry_Int_Tables_Number  1
loop_
_symmetry_equiv_pos_site_id
_symmetry_equiv_pos_as_xyz
  1  x,y,z
loop_
 _atom_site_label
 _atom_site_occupancy
 _atom_site_fract_x
 _atom_site_fract_y
 _atom_site_fract_z
 _atom_site_thermal_displace_type
 _atom_site_B_iso_or_equiv
 _atom_site_type_symbol
Ag1 1.0000000000 0.9976497981 0.2949863818 0.6231145200  Biso 1.0 Ag
Ag2 1.0000000000 0.4976497981 0.2050136182 0.3768854800  Biso 1.0 Ag
Ag3 1.0000000000 0.5023502019 0.7050136182 0.1231145200  Biso 1.0 Ag
Ag4 1.0000000000 0.0023502019 0.7949863818 0.8768854800  Biso 1.0 Ag
Dy5 1.0000000000 0.7699147507 0.2910479069 0.8716174535  Biso 1.0 Dy
Dy6 1.0000000000 0.2699147507 0.2089520931 0.1283825465  Biso 1.0 Dy
Dy7 1.0000000000 0.7300852493 0.7089520931 0.3716174535  Biso 1.0 Dy
Dy8 1.0000000000 0.2300852493 0.7910479069 0.6283825465  Biso 1.0 Dy
Se9 1.0000000000 0.2700188186 0.0884620295 0.7727470360  Biso 1.0 Se
Se10 1.0000000000 0.7700188186 0.4115379705 0.2272529640  Biso 1.0 Se
Se11 1.0000000000 0.2299811814 0.9115379705 0.2727470360  Biso 1.0 Se
Se12 1.0000000000 0.7299811814 0.5884620295 0.7272529640  Biso 1.0 Se
Se13 1.0000000000 0.2647548957 0.4848173591 0.9733401884  Biso 1.0 Se
Se14 1.0000000000 0.7647548957 0.0151826409 0.0266598116  Biso 1.0 Se
Se15 1.0000000000 0.2352451043 0.5151826409 0.4733401884  Biso 1.0 Se
Se16 1.0000000000 0.7352451043 0.9848173591 0.5266598116  Biso 1.0 Se
