# AFLOW.org Repositories
# Ag1Dy1Te2   [TET,TET,tP8] (STD_PRIM doi:
data_Ag1Dy1Te2
_pd_phase_name Ag1Dy1Te2
_cell_length_a  7.2201975441
_cell_length_b  7.2201975441
_cell_length_c  4.6294273504
_cell_angle_alpha  90.0000000000
_cell_angle_beta  90.0000000000
_cell_angle_gamma  90.0000000000
_symmetry_space_group_name_H-M  'P1'
_symmetry_Int_Tables_Number  1
loop_
_symmetry_equiv_pos_site_id
_symmetry_equiv_pos_as_xyz
  1  x,y,z
loop_
 _atom_site_label
 _atom_site_occupancy
 _atom_site_fract_x
 _atom_site_fract_y
 _atom_site_fract_z
 _atom_site_thermal_displace_type
 _atom_site_B_iso_or_equiv
 _atom_site_type_symbol
Ag1 1.0000000000 0.0000000000 0.0000000000 0.0000000000  Biso 1.0 Ag
Ag2 1.0000000000 0.5000000000 0.5000000000 0.0000000000  Biso 1.0 Ag
Dy3 1.0000000000 0.0000000000 0.5000000000 0.7994281154  Biso 1.0 Dy
Dy4 1.0000000000 0.5000000000 0.0000000000 0.2005718846  Biso 1.0 Dy
Te5 1.0000000000 0.7974934601 0.2974934601 0.2877955046  Biso 1.0 Te
Te6 1.0000000000 0.2025065399 0.7025065399 0.2877955046  Biso 1.0 Te
Te7 1.0000000000 0.2974934601 0.2025065399 0.7122044954  Biso 1.0 Te
Te8 1.0000000000 0.7025065399 0.7974934601 0.7122044954  Biso 1.0 Te
