# AFLOW.org Repositories
# Ag1F3K1   [ORC,ORC,oP20] (STD_PRIM doi:1
data_Ag1F3K1
_pd_phase_name Ag1F3K1
_cell_length_a  6.2037616780
_cell_length_b  6.4964288473
_cell_length_c  8.4388590533
_cell_angle_alpha  90.0000000000
_cell_angle_beta  90.0000000000
_cell_angle_gamma  90.0000000000
_symmetry_space_group_name_H-M  'P1'
_symmetry_Int_Tables_Number  1
loop_
_symmetry_equiv_pos_site_id
_symmetry_equiv_pos_as_xyz
  1  x,y,z
loop_
 _atom_site_label
 _atom_site_occupancy
 _atom_site_fract_x
 _atom_site_fract_y
 _atom_site_fract_z
 _atom_site_thermal_displace_type
 _atom_site_B_iso_or_equiv
 _atom_site_type_symbol
Ag1 1.0000000000 0.0000000000 0.0000000000 0.0000000000  Biso 1.0 Ag
Ag2 1.0000000000 0.5000000000 0.5000000000 0.0000000000  Biso 1.0 Ag
Ag3 1.0000000000 0.0000000000 0.0000000000 0.5000000000  Biso 1.0 Ag
Ag4 1.0000000000 0.5000000000 0.5000000000 0.5000000000  Biso 1.0 Ag
F5 1.0000000000 0.4106407435 0.4725190762 0.7500000000  Biso 1.0 F
F6 1.0000000000 0.9106407435 0.0274809238 0.2500000000  Biso 1.0 F
F7 1.0000000000 0.5893592565 0.5274809238 0.2500000000  Biso 1.0 F
F8 1.0000000000 0.0893592565 0.9725190762 0.7500000000  Biso 1.0 F
F9 1.0000000000 0.7728301399 0.3177321272 0.5403128031  Biso 1.0 F
F10 1.0000000000 0.2728301399 0.1822678728 0.4596871969  Biso 1.0 F
F11 1.0000000000 0.2271698601 0.6822678728 0.0403128031  Biso 1.0 F
F12 1.0000000000 0.7271698601 0.8177321272 0.9596871969  Biso 1.0 F
F13 1.0000000000 0.2271698601 0.6822678728 0.4596871969  Biso 1.0 F
F14 1.0000000000 0.7271698601 0.8177321272 0.5403128031  Biso 1.0 F
F15 1.0000000000 0.7728301399 0.3177321272 0.9596871969  Biso 1.0 F
F16 1.0000000000 0.2728301399 0.1822678728 0.0403128031  Biso 1.0 F
K17 1.0000000000 0.5098764912 0.0548467973 0.7500000000  Biso 1.0 K
K18 1.0000000000 0.0098764912 0.4451532027 0.2500000000  Biso 1.0 K
K19 1.0000000000 0.4901235088 0.9451532027 0.2500000000  Biso 1.0 K
K20 1.0000000000 0.9901235088 0.5548467973 0.7500000000  Biso 1.0 K
