# AFLOW.org Repositories
# Ag1Ga1Te2   [BCT,BCT2,tI16] (STD_PRIM do
data_Ag1Ga1Te2
_pd_phase_name Ag1Ga1Te2
_cell_length_a  7.6385022925
_cell_length_b  7.6385022925
_cell_length_c  7.6385022925
_cell_angle_alpha  129.8973724758
_cell_angle_beta  129.8973724758
_cell_angle_gamma  73.5708849555
_symmetry_space_group_name_H-M  'P1'
_symmetry_Int_Tables_Number  1
loop_
_symmetry_equiv_pos_site_id
_symmetry_equiv_pos_as_xyz
  1  x,y,z
loop_
 _atom_site_label
 _atom_site_occupancy
 _atom_site_fract_x
 _atom_site_fract_y
 _atom_site_fract_z
 _atom_site_thermal_displace_type
 _atom_site_B_iso_or_equiv
 _atom_site_type_symbol
Ag1 1.0000000000 0.0000000000 0.0000000000 0.0000000000  Biso 1.0 Ag
Ag2 1.0000000000 0.7500000000 0.2500000000 0.5000000000  Biso 1.0 Ag
Ga3 1.0000000000 0.5000000000 0.5000000000 0.0000000000  Biso 1.0 Ga
Ga4 1.0000000000 0.2500000000 0.7500000000 0.5000000000  Biso 1.0 Ga
Te5 1.0000000000 0.1466425251 0.1250000000 0.5216425251  Biso 1.0 Te
Te6 1.0000000000 0.6033574749 0.6250000000 0.4783574749  Biso 1.0 Te
Te7 1.0000000000 0.3750000000 0.8533574749 0.9783574749  Biso 1.0 Te
Te8 1.0000000000 0.8750000000 0.3966425251 0.0216425251  Biso 1.0 Te
