# AFLOW.org Repositories
# Ag1Ho1Sn1   [HEX,HEX,hP6] (STD_PRIM doi:
data_Ag1Ho1Sn1
_pd_phase_name Ag1Ho1Sn1
_cell_length_a  4.7627980746
_cell_length_b  4.7627980746
_cell_length_c  7.3849791913
_cell_angle_alpha  90.0000000000
_cell_angle_beta  90.0000000000
_cell_angle_gamma  120.0000000000
_symmetry_space_group_name_H-M  'P1'
_symmetry_Int_Tables_Number  1
loop_
_symmetry_equiv_pos_site_id
_symmetry_equiv_pos_as_xyz
  1  x,y,z
loop_
 _atom_site_label
 _atom_site_occupancy
 _atom_site_fract_x
 _atom_site_fract_y
 _atom_site_fract_z
 _atom_site_thermal_displace_type
 _atom_site_B_iso_or_equiv
 _atom_site_type_symbol
Ag1 1.0000000000 0.3333402588 0.6666701294 0.6908853671  Biso 1.0 Ag
Ag2 1.0000000000 0.6666597412 0.3333298706 0.1908853671  Biso 1.0 Ag
Ho3 1.0000000000 0.0000000000 0.0000000000 0.0000000000  Biso 1.0 Ho
Ho4 1.0000000000 0.0000000000 0.0000000000 0.5002569118  Biso 1.0 Ho
Sn5 1.0000000000 0.3333300089 0.6666650044 0.2797577211  Biso 1.0 Sn
Sn6 1.0000000000 0.6666699911 0.3333349956 0.7797577211  Biso 1.0 Sn
