# AFLOW.org Repositories
# Ag1Ho1Se2   [ORC,ORC,oP16] (STD_PRIM doi
data_Ag1Ho1Se2
_pd_phase_name Ag1Ho1Se2
_cell_length_a  4.2135302677
_cell_length_b  6.9258397903
_cell_length_c  13.8247440465
_cell_angle_alpha  90.0000000000
_cell_angle_beta  90.0000000000
_cell_angle_gamma  90.0000000000
_symmetry_space_group_name_H-M  'P1'
_symmetry_Int_Tables_Number  1
loop_
_symmetry_equiv_pos_site_id
_symmetry_equiv_pos_as_xyz
  1  x,y,z
loop_
 _atom_site_label
 _atom_site_occupancy
 _atom_site_fract_x
 _atom_site_fract_y
 _atom_site_fract_z
 _atom_site_thermal_displace_type
 _atom_site_B_iso_or_equiv
 _atom_site_type_symbol
Ag1 1.0000000000 0.0023097347 0.7049625385 0.3769214647  Biso 1.0 Ag
Ag2 1.0000000000 0.5023097347 0.7950374615 0.6230785353  Biso 1.0 Ag
Ag3 1.0000000000 0.4976902653 0.2950374615 0.8769214647  Biso 1.0 Ag
Ag4 1.0000000000 0.9976902653 0.2049625385 0.1230785353  Biso 1.0 Ag
Ho5 1.0000000000 0.2301021767 0.7087564673 0.1282941374  Biso 1.0 Ho
Ho6 1.0000000000 0.7301021767 0.7912435327 0.8717058626  Biso 1.0 Ho
Ho7 1.0000000000 0.2698978233 0.2912435327 0.6282941374  Biso 1.0 Ho
Ho8 1.0000000000 0.7698978233 0.2087564673 0.3717058626  Biso 1.0 Ho
Se9 1.0000000000 0.7291374256 0.9112382459 0.2272832968  Biso 1.0 Se
Se10 1.0000000000 0.2291374256 0.5887617541 0.7727167032  Biso 1.0 Se
Se11 1.0000000000 0.7708625744 0.0887617541 0.7272832968  Biso 1.0 Se
Se12 1.0000000000 0.2708625744 0.4112382459 0.2727167032  Biso 1.0 Se
Se13 1.0000000000 0.7348257405 0.5159766659 0.0267676425  Biso 1.0 Se
Se14 1.0000000000 0.2348257405 0.9840233341 0.9732323575  Biso 1.0 Se
Se15 1.0000000000 0.7651742595 0.4840233341 0.5267676425  Biso 1.0 Se
Se16 1.0000000000 0.2651742595 0.0159766659 0.4732323575  Biso 1.0 Se
