# AFLOW.org Repositories
# Ag1In1O2   [HEX,HEX,hP8] (STD_PRIM doi:1
data_Ag1In1O2
_pd_phase_name Ag1In1O2
_cell_length_a  3.3252610095
_cell_length_b  3.3252610095
_cell_length_c  12.8347628123
_cell_angle_alpha  90.0000000000
_cell_angle_beta  90.0000000000
_cell_angle_gamma  120.0000000000
_symmetry_space_group_name_H-M  'P1'
_symmetry_Int_Tables_Number  1
loop_
_symmetry_equiv_pos_site_id
_symmetry_equiv_pos_as_xyz
  1  x,y,z
loop_
 _atom_site_label
 _atom_site_occupancy
 _atom_site_fract_x
 _atom_site_fract_y
 _atom_site_fract_z
 _atom_site_thermal_displace_type
 _atom_site_B_iso_or_equiv
 _atom_site_type_symbol
Ag1 1.0000000000 0.6666972095 0.3333944190 0.2500000000  Biso 1.0 Ag
Ag2 1.0000000000 0.3333027905 0.6666055810 0.7500000000  Biso 1.0 Ag
In3 1.0000000000 0.0000000000 0.0000000000 0.0000000000  Biso 1.0 In
In4 1.0000000000 0.0000000000 0.0000000000 0.5000000000  Biso 1.0 In
O5 1.0000000000 0.6666823206 0.3333646412 0.0840749407  Biso 1.0 O
O6 1.0000000000 0.3333176794 0.6666353588 0.5840749407  Biso 1.0 O
O7 1.0000000000 0.3333176794 0.6666353588 0.9159250593  Biso 1.0 O
O8 1.0000000000 0.6666823206 0.3333646412 0.4159250593  Biso 1.0 O
