# AFLOW.org Repositories
# Ag1In5Te8   [TET,TET,tP14] (STD_PRIM doi
data_Ag1In5Te8
_pd_phase_name Ag1In5Te8
_cell_length_a  6.3093566845
_cell_length_b  6.3093566845
_cell_length_c  12.8356661968
_cell_angle_alpha  90.0000000000
_cell_angle_beta  90.0000000000
_cell_angle_gamma  90.0000000000
_symmetry_space_group_name_H-M  'P1'
_symmetry_Int_Tables_Number  1
loop_
_symmetry_equiv_pos_site_id
_symmetry_equiv_pos_as_xyz
  1  x,y,z
loop_
 _atom_site_label
 _atom_site_occupancy
 _atom_site_fract_x
 _atom_site_fract_y
 _atom_site_fract_z
 _atom_site_thermal_displace_type
 _atom_site_B_iso_or_equiv
 _atom_site_type_symbol
Ag1 1.0000000000 0.0000000000 0.0000000000 0.5000000000  Biso 1.0 Ag
In2 1.0000000000 0.0000000000 0.5000000000 0.2537916818  Biso 1.0 In
In3 1.0000000000 0.5000000000 0.0000000000 0.7462083182  Biso 1.0 In
In4 1.0000000000 0.0000000000 0.5000000000 0.7462083182  Biso 1.0 In
In5 1.0000000000 0.5000000000 0.0000000000 0.2537916818  Biso 1.0 In
In6 1.0000000000 0.5000000000 0.5000000000 0.0000000000  Biso 1.0 In
Te7 1.0000000000 0.2227488003 0.2227488003 0.1109873287  Biso 1.0 Te
Te8 1.0000000000 0.7772511997 0.7772511997 0.1109873287  Biso 1.0 Te
Te9 1.0000000000 0.2227488003 0.7772511997 0.8890126713  Biso 1.0 Te
Te10 1.0000000000 0.7772511997 0.2227488003 0.8890126713  Biso 1.0 Te
Te11 1.0000000000 0.7262073832 0.7262073832 0.6151748164  Biso 1.0 Te
Te12 1.0000000000 0.2737926168 0.2737926168 0.6151748164  Biso 1.0 Te
Te13 1.0000000000 0.7262073832 0.2737926168 0.3848251836  Biso 1.0 Te
Te14 1.0000000000 0.2737926168 0.7262073832 0.3848251836  Biso 1.0 Te
