# AFLOW.org Repositories
# Ag1K1O1   [BCT,BCT1,tI24] (STD_PRIM doi:
data_Ag1K1O1
_pd_phase_name Ag1K1O1
_cell_length_a  7.6416580914
_cell_length_b  7.6416580914
_cell_length_c  7.6416580914
_cell_angle_alpha  97.4821338884
_cell_angle_beta  97.4821338884
_cell_angle_gamma  137.6944532506
_symmetry_space_group_name_H-M  'P1'
_symmetry_Int_Tables_Number  1
loop_
_symmetry_equiv_pos_site_id
_symmetry_equiv_pos_as_xyz
  1  x,y,z
loop_
 _atom_site_label
 _atom_site_occupancy
 _atom_site_fract_x
 _atom_site_fract_y
 _atom_site_fract_z
 _atom_site_thermal_displace_type
 _atom_site_B_iso_or_equiv
 _atom_site_type_symbol
Ag1 1.0000000000 0.1028939863 0.8971060137 0.5000000000  Biso 1.0 Ag
Ag2 1.0000000000 0.3971060137 0.6028939863 0.5000000000  Biso 1.0 Ag
Ag3 1.0000000000 0.3971060137 0.8971060137 0.7942120273  Biso 1.0 Ag
Ag4 1.0000000000 0.1028939863 0.6028939863 0.2057879727  Biso 1.0 Ag
K5 1.0000000000 0.4248748782 0.2495060498 0.1753688284  Biso 1.0 K
K6 1.0000000000 0.0741372214 0.2495060498 0.8246311716  Biso 1.0 K
K7 1.0000000000 0.7504939502 0.5751251218 0.8246311716  Biso 1.0 K
K8 1.0000000000 0.7504939502 0.9258627786 0.1753688284  Biso 1.0 K
O9 1.0000000000 0.9536978495 0.7484658638 0.2052319857  Biso 1.0 O
O10 1.0000000000 0.5432338780 0.7484658638 0.7947680143  Biso 1.0 O
O11 1.0000000000 0.2515341362 0.0463021505 0.7947680143  Biso 1.0 O
O12 1.0000000000 0.2515341362 0.4567661220 0.2052319857  Biso 1.0 O
