# AFLOW.org Repositories
# Ag1Pd3Se1   [CUB,CUB,cP40] (STD_PRIM doi
data_Ag1Pd3Se1
_pd_phase_name Ag1Pd3Se1
_cell_length_a  8.7452904951
_cell_length_b  8.7452904951
_cell_length_c  8.7452904951
_cell_angle_alpha  90.0000000000
_cell_angle_beta  90.0000000000
_cell_angle_gamma  90.0000000000
_symmetry_space_group_name_H-M  'P1'
_symmetry_Int_Tables_Number  1
loop_
_symmetry_equiv_pos_site_id
_symmetry_equiv_pos_as_xyz
  1  x,y,z
loop_
 _atom_site_label
 _atom_site_occupancy
 _atom_site_fract_x
 _atom_site_fract_y
 _atom_site_fract_z
 _atom_site_thermal_displace_type
 _atom_site_B_iso_or_equiv
 _atom_site_type_symbol
Ag1 1.0000000000 0.5950290652 0.5950290652 0.4049709348  Biso 1.0 Ag
Ag2 1.0000000000 0.9049709348 0.4049709348 0.9049709348  Biso 1.0 Ag
Ag3 1.0000000000 0.4049709348 0.0950290652 0.0950290652  Biso 1.0 Ag
Ag4 1.0000000000 0.0950290652 0.9049709348 0.5950290652  Biso 1.0 Ag
Ag5 1.0000000000 0.4049709348 0.4049709348 0.5950290652  Biso 1.0 Ag
Ag6 1.0000000000 0.0950290652 0.5950290652 0.0950290652  Biso 1.0 Ag
Ag7 1.0000000000 0.5950290652 0.9049709348 0.9049709348  Biso 1.0 Ag
Ag8 1.0000000000 0.9049709348 0.0950290652 0.4049709348  Biso 1.0 Ag
Pd9 1.0000000000 0.4128595170 0.7780674567 0.6358629409  Biso 1.0 Pd
Pd10 1.0000000000 0.0871404830 0.2219325433 0.1358629409  Biso 1.0 Pd
Pd11 1.0000000000 0.5871404830 0.2780674567 0.8641370591  Biso 1.0 Pd
Pd12 1.0000000000 0.9128595170 0.7219325433 0.3641370591  Biso 1.0 Pd
Pd13 1.0000000000 0.3641370591 0.4128595170 0.2219325433  Biso 1.0 Pd
Pd14 1.0000000000 0.8641370591 0.0871404830 0.7780674567  Biso 1.0 Pd
Pd15 1.0000000000 0.1358629409 0.5871404830 0.7219325433  Biso 1.0 Pd
Pd16 1.0000000000 0.6358629409 0.9128595170 0.2780674567  Biso 1.0 Pd
Pd17 1.0000000000 0.7780674567 0.3641370591 0.5871404830  Biso 1.0 Pd
Pd18 1.0000000000 0.2219325433 0.8641370591 0.9128595170  Biso 1.0 Pd
Pd19 1.0000000000 0.2780674567 0.1358629409 0.4128595170  Biso 1.0 Pd
Pd20 1.0000000000 0.7219325433 0.6358629409 0.0871404830  Biso 1.0 Pd
Pd21 1.0000000000 0.5871404830 0.2219325433 0.3641370591  Biso 1.0 Pd
Pd22 1.0000000000 0.9128595170 0.7780674567 0.8641370591  Biso 1.0 Pd
Pd23 1.0000000000 0.4128595170 0.7219325433 0.1358629409  Biso 1.0 Pd
Pd24 1.0000000000 0.0871404830 0.2780674567 0.6358629409  Biso 1.0 Pd
Pd25 1.0000000000 0.6358629409 0.5871404830 0.7780674567  Biso 1.0 Pd
Pd26 1.0000000000 0.1358629409 0.9128595170 0.2219325433  Biso 1.0 Pd
Pd27 1.0000000000 0.8641370591 0.4128595170 0.2780674567  Biso 1.0 Pd
Pd28 1.0000000000 0.3641370591 0.0871404830 0.7219325433  Biso 1.0 Pd
Pd29 1.0000000000 0.2219325433 0.6358629409 0.4128595170  Biso 1.0 Pd
Pd30 1.0000000000 0.7780674567 0.1358629409 0.0871404830  Biso 1.0 Pd
Pd31 1.0000000000 0.7219325433 0.8641370591 0.5871404830  Biso 1.0 Pd
Pd32 1.0000000000 0.2780674567 0.3641370591 0.9128595170  Biso 1.0 Pd
Se33 1.0000000000 0.8752226311 0.8752226311 0.1247773689  Biso 1.0 Se
Se34 1.0000000000 0.6247773689 0.1247773689 0.6247773689  Biso 1.0 Se
Se35 1.0000000000 0.1247773689 0.3752226311 0.3752226311  Biso 1.0 Se
Se36 1.0000000000 0.3752226311 0.6247773689 0.8752226311  Biso 1.0 Se
Se37 1.0000000000 0.1247773689 0.1247773689 0.8752226311  Biso 1.0 Se
Se38 1.0000000000 0.3752226311 0.8752226311 0.3752226311  Biso 1.0 Se
Se39 1.0000000000 0.8752226311 0.6247773689 0.6247773689  Biso 1.0 Se
Se40 1.0000000000 0.6247773689 0.3752226311 0.1247773689  Biso 1.0 Se
