# AFLOW.org Repositories
# Ag1Pb1Tb1   [HEX,HEX,hP6] (STD_PRIM doi:
data_Ag1Pb1Tb1
_pd_phase_name Ag1Pb1Tb1
_cell_length_a  4.8481632040
_cell_length_b  4.8481632040
_cell_length_c  7.4823744112
_cell_angle_alpha  90.0000000000
_cell_angle_beta  90.0000000000
_cell_angle_gamma  120.0000000000
_symmetry_space_group_name_H-M  'P1'
_symmetry_Int_Tables_Number  1
loop_
_symmetry_equiv_pos_site_id
_symmetry_equiv_pos_as_xyz
  1  x,y,z
loop_
 _atom_site_label
 _atom_site_occupancy
 _atom_site_fract_x
 _atom_site_fract_y
 _atom_site_fract_z
 _atom_site_thermal_displace_type
 _atom_site_B_iso_or_equiv
 _atom_site_type_symbol
Ag1 1.0000000000 0.3333391785 0.6666695892 0.8150556777  Biso 1.0 Ag
Ag2 1.0000000000 0.6666608215 0.3333304108 0.3150556777  Biso 1.0 Ag
Pb3 1.0000000000 0.3333315893 0.6666657947 0.2258626370  Biso 1.0 Pb
Pb4 1.0000000000 0.6666684107 0.3333342053 0.7258626370  Biso 1.0 Pb
Tb5 1.0000000000 0.0000000000 0.0000000000 0.0042816853  Biso 1.0 Tb
Tb6 1.0000000000 0.0000000000 0.0000000000 0.5042816853  Biso 1.0 Tb
