# AFLOW.org Repositories
# Ag1Sn1Tb1   [HEX,HEX,hP6] (STD_PRIM doi:
data_Ag1Sn1Tb1
_pd_phase_name Ag1Sn1Tb1
_cell_length_a  4.7827086649
_cell_length_b  4.7827086649
_cell_length_c  7.4633992592
_cell_angle_alpha  90.0000000000
_cell_angle_beta  90.0000000000
_cell_angle_gamma  120.0000000000
_symmetry_space_group_name_H-M  'P1'
_symmetry_Int_Tables_Number  1
loop_
_symmetry_equiv_pos_site_id
_symmetry_equiv_pos_as_xyz
  1  x,y,z
loop_
 _atom_site_label
 _atom_site_occupancy
 _atom_site_fract_x
 _atom_site_fract_y
 _atom_site_fract_z
 _atom_site_thermal_displace_type
 _atom_site_B_iso_or_equiv
 _atom_site_type_symbol
Ag1 1.0000000000 0.6666643121 0.3333286243 0.0351957282  Biso 1.0 Ag
Ag2 1.0000000000 0.3333356879 0.6666713757 0.5351957282  Biso 1.0 Ag
Sn3 1.0000000000 0.6666626070 0.3333252139 0.4487919100  Biso 1.0 Sn
Sn4 1.0000000000 0.3333373930 0.6666747861 0.9487919100  Biso 1.0 Sn
Tb5 1.0000000000 0.0000000000 0.0000000000 0.2280123618  Biso 1.0 Tb
Tb6 1.0000000000 0.0000000000 0.0000000000 0.7280123618  Biso 1.0 Tb
