# AFLOW.org Repositories
# Ag1Sr1   [ORC,ORC,oP16] (STD_PRIM doi:10
data_Ag1Sr1
_pd_phase_name Ag1Sr1
_cell_length_a  4.8422604136
_cell_length_b  6.4324383334
_cell_length_c  16.6249698433
_cell_angle_alpha  90.0000000000
_cell_angle_beta  90.0000000000
_cell_angle_gamma  90.0000000000
_symmetry_space_group_name_H-M  'P1'
_symmetry_Int_Tables_Number  1
loop_
_symmetry_equiv_pos_site_id
_symmetry_equiv_pos_as_xyz
  1  x,y,z
loop_
 _atom_site_label
 _atom_site_occupancy
 _atom_site_fract_x
 _atom_site_fract_y
 _atom_site_fract_z
 _atom_site_thermal_displace_type
 _atom_site_B_iso_or_equiv
 _atom_site_type_symbol
Ag1 1.0000000000 0.7500000000 0.9942287018 0.3569004089  Biso 1.0 Ag
Ag2 1.0000000000 0.2500000000 0.4942287018 0.1430995911  Biso 1.0 Ag
Ag3 1.0000000000 0.2500000000 0.0057712982 0.6430995911  Biso 1.0 Ag
Ag4 1.0000000000 0.7500000000 0.5057712982 0.8569004089  Biso 1.0 Ag
Ag5 1.0000000000 0.7500000000 0.7458275317 0.1073060021  Biso 1.0 Ag
Ag6 1.0000000000 0.2500000000 0.2458275317 0.3926939979  Biso 1.0 Ag
Ag7 1.0000000000 0.2500000000 0.2541724683 0.8926939979  Biso 1.0 Ag
Ag8 1.0000000000 0.7500000000 0.7541724683 0.6073060021  Biso 1.0 Ag
Sr9 1.0000000000 0.7500000000 0.4872984220 0.2851558967  Biso 1.0 Sr
Sr10 1.0000000000 0.2500000000 0.9872984220 0.2148441033  Biso 1.0 Sr
Sr11 1.0000000000 0.2500000000 0.5127015780 0.7148441033  Biso 1.0 Sr
Sr12 1.0000000000 0.7500000000 0.0127015780 0.7851558967  Biso 1.0 Sr
Sr13 1.0000000000 0.7500000000 0.2533298840 0.0350175674  Biso 1.0 Sr
Sr14 1.0000000000 0.2500000000 0.7533298840 0.4649824326  Biso 1.0 Sr
Sr15 1.0000000000 0.2500000000 0.7466701160 0.9649824326  Biso 1.0 Sr
Sr16 1.0000000000 0.7500000000 0.2466701160 0.5350175674  Biso 1.0 Sr
