# AFLOW.org Repositories
# Ag1S3Ta1   [ORCC,ORCC,oS20] (STD_PRIM do
data_Ag1S3Ta1
_pd_phase_name Ag1S3Ta1
_cell_length_a  7.3795432215
_cell_length_b  7.3795432215
_cell_length_c  7.8435433951
_cell_angle_alpha  90.0000000000
_cell_angle_beta  90.0000000000
_cell_angle_gamma  153.1964638782
_symmetry_space_group_name_H-M  'P1'
_symmetry_Int_Tables_Number  1
loop_
_symmetry_equiv_pos_site_id
_symmetry_equiv_pos_as_xyz
  1  x,y,z
loop_
 _atom_site_label
 _atom_site_occupancy
 _atom_site_fract_x
 _atom_site_fract_y
 _atom_site_fract_z
 _atom_site_thermal_displace_type
 _atom_site_B_iso_or_equiv
 _atom_site_type_symbol
Ag1 1.0000000000 0.0000000000 0.0000000000 0.5000000000  Biso 1.0 Ag
Ag2 1.0000000000 0.0000000000 0.0000000000 0.0000000000  Biso 1.0 Ag
S3 1.0000000000 0.1065982722 0.8934017278 0.7500000000  Biso 1.0 S
S4 1.0000000000 0.8934017278 0.1065982722 0.2500000000  Biso 1.0 S
S5 1.0000000000 0.3262715273 0.6737284727 0.5700351745  Biso 1.0 S
S6 1.0000000000 0.6737284727 0.3262715273 0.0700351745  Biso 1.0 S
S7 1.0000000000 0.3262715273 0.6737284727 0.9299648255  Biso 1.0 S
S8 1.0000000000 0.6737284727 0.3262715273 0.4299648255  Biso 1.0 S
Ta9 1.0000000000 0.7380064352 0.2619935648 0.7500000000  Biso 1.0 Ta
Ta10 1.0000000000 0.2619935648 0.7380064352 0.2500000000  Biso 1.0 Ta
