# AFLOW.org Repositories
# Ag1Te1Tl1   [ORC,ORC,oP12] (STD_PRIM doi
data_Ag1Te1Tl1
_pd_phase_name Ag1Te1Tl1
_cell_length_a  4.9517362673
_cell_length_b  8.1182105279
_cell_length_c  8.6624620514
_cell_angle_alpha  90.0000000000
_cell_angle_beta  90.0000000000
_cell_angle_gamma  90.0000000000
_symmetry_space_group_name_H-M  'P1'
_symmetry_Int_Tables_Number  1
loop_
_symmetry_equiv_pos_site_id
_symmetry_equiv_pos_as_xyz
  1  x,y,z
loop_
 _atom_site_label
 _atom_site_occupancy
 _atom_site_fract_x
 _atom_site_fract_y
 _atom_site_fract_z
 _atom_site_thermal_displace_type
 _atom_site_B_iso_or_equiv
 _atom_site_type_symbol
Ag1 1.0000000000 0.7500000000 0.4183392581 0.1607826076  Biso 1.0 Ag
Ag2 1.0000000000 0.2500000000 0.9183392581 0.3392173924  Biso 1.0 Ag
Ag3 1.0000000000 0.2500000000 0.5816607419 0.8392173924  Biso 1.0 Ag
Ag4 1.0000000000 0.7500000000 0.0816607419 0.6607826076  Biso 1.0 Ag
Te5 1.0000000000 0.7500000000 0.1017276988 0.3064245911  Biso 1.0 Te
Te6 1.0000000000 0.2500000000 0.6017276988 0.1935754089  Biso 1.0 Te
Te7 1.0000000000 0.2500000000 0.8982723012 0.6935754089  Biso 1.0 Te
Te8 1.0000000000 0.7500000000 0.3982723012 0.8064245911  Biso 1.0 Te
Tl9 1.0000000000 0.7500000000 0.6811397765 0.4940965637  Biso 1.0 Tl
Tl10 1.0000000000 0.2500000000 0.1811397765 0.0059034363  Biso 1.0 Tl
Tl11 1.0000000000 0.2500000000 0.3188602235 0.5059034363  Biso 1.0 Tl
Tl12 1.0000000000 0.7500000000 0.8188602235 0.9940965637  Biso 1.0 Tl
