# AFLOW.org Repositories
# Ag1Zr1   [TET,TET,tP4] (STD_PRIM doi:10.
data_Ag1Zr1
_pd_phase_name Ag1Zr1
_cell_length_a  3.4605728358
_cell_length_b  3.4605728358
_cell_length_c  6.8079739327
_cell_angle_alpha  90.0000000000
_cell_angle_beta  90.0000000000
_cell_angle_gamma  90.0000000000
_symmetry_space_group_name_H-M  'P1'
_symmetry_Int_Tables_Number  1
loop_
_symmetry_equiv_pos_site_id
_symmetry_equiv_pos_as_xyz
  1  x,y,z
loop_
 _atom_site_label
 _atom_site_occupancy
 _atom_site_fract_x
 _atom_site_fract_y
 _atom_site_fract_z
 _atom_site_thermal_displace_type
 _atom_site_B_iso_or_equiv
 _atom_site_type_symbol
Ag1 1.0000000000 0.2500000000 0.2500000000 0.6114698974  Biso 1.0 Ag
Ag2 1.0000000000 0.7500000000 0.7500000000 0.3885301026  Biso 1.0 Ag
Zr3 1.0000000000 0.2500000000 0.2500000000 0.1396716621  Biso 1.0 Zr
Zr4 1.0000000000 0.7500000000 0.7500000000 0.8603283379  Biso 1.0 Zr
