# AFLOW.org Repositories
# Ag2Ba1   [ORCI,ORCI,oI12] (STD_PRIM doi:
data_Ag2Ba1
_pd_phase_name Ag2Ba1
_cell_length_a  6.4419828258
_cell_length_b  6.4419828258
_cell_length_c  6.4419828258
_cell_angle_alpha  133.9194867594
_cell_angle_beta  101.2713890811
_cell_angle_gamma  96.3670090386
_symmetry_space_group_name_H-M  'P1'
_symmetry_Int_Tables_Number  1
loop_
_symmetry_equiv_pos_site_id
_symmetry_equiv_pos_as_xyz
  1  x,y,z
loop_
 _atom_site_label
 _atom_site_occupancy
 _atom_site_fract_x
 _atom_site_fract_y
 _atom_site_fract_z
 _atom_site_thermal_displace_type
 _atom_site_B_iso_or_equiv
 _atom_site_type_symbol
Ag1 1.0000000000 0.7164457194 0.1644610940 0.5519846254  Biso 1.0 Ag
Ag2 1.0000000000 0.1124764686 0.1644610940 0.9480153746  Biso 1.0 Ag
Ag3 1.0000000000 0.8875235314 0.8355389060 0.0519846254  Biso 1.0 Ag
Ag4 1.0000000000 0.2835542806 0.8355389060 0.4480153746  Biso 1.0 Ag
Ba5 1.0000000000 0.2890821468 0.5390821468 0.7500000000  Biso 1.0 Ba
Ba6 1.0000000000 0.7109178532 0.4609178532 0.2500000000  Biso 1.0 Ba
