# AFLOW.org Repositories
# Ag2Ba1Sn2   [BCT,BCT2,tI10] (STD_PRIM do
data_Ag2Ba1Sn2
_pd_phase_name Ag2Ba1Sn2
_cell_length_a  6.8186599926
_cell_length_b  6.8186599926
_cell_length_c  6.8186599926
_cell_angle_alpha  137.6336515088
_cell_angle_beta  137.6336515088
_cell_angle_gamma  61.4645439948
_symmetry_space_group_name_H-M  'P1'
_symmetry_Int_Tables_Number  1
loop_
_symmetry_equiv_pos_site_id
_symmetry_equiv_pos_as_xyz
  1  x,y,z
loop_
 _atom_site_label
 _atom_site_occupancy
 _atom_site_fract_x
 _atom_site_fract_y
 _atom_site_fract_z
 _atom_site_thermal_displace_type
 _atom_site_B_iso_or_equiv
 _atom_site_type_symbol
Ag1 1.0000000000 0.2500000000 0.7500000000 0.5000000000  Biso 1.0 Ag
Ag2 1.0000000000 0.7500000000 0.2500000000 0.5000000000  Biso 1.0 Ag
Ba3 1.0000000000 0.0000000000 0.0000000000 0.0000000000  Biso 1.0 Ba
Sn4 1.0000000000 0.3758521259 0.3758521259 0.0000000000  Biso 1.0 Sn
Sn5 1.0000000000 0.6241478741 0.6241478741 0.0000000000  Biso 1.0 Sn
