# AFLOW.org Repositories
# Ag2Ca1   [ORCI,ORCI,oI12] (STD_PRIM doi:
data_Ag2Ca1
_pd_phase_name Ag2Ca1
_cell_length_a  6.0161963445
_cell_length_b  6.0161963445
_cell_length_c  6.0161963445
_cell_angle_alpha  133.4282455531
_cell_angle_beta  104.5977912387
_cell_angle_gamma  93.4697948314
_symmetry_space_group_name_H-M  'P1'
_symmetry_Int_Tables_Number  1
loop_
_symmetry_equiv_pos_site_id
_symmetry_equiv_pos_as_xyz
  1  x,y,z
loop_
 _atom_site_label
 _atom_site_occupancy
 _atom_site_fract_x
 _atom_site_fract_y
 _atom_site_fract_z
 _atom_site_thermal_displace_type
 _atom_site_B_iso_or_equiv
 _atom_site_type_symbol
Ag1 1.0000000000 0.1117659254 0.1625977645 0.9491681609  Biso 1.0 Ag
Ag2 1.0000000000 0.7134296036 0.1625977645 0.5508318391  Biso 1.0 Ag
Ag3 1.0000000000 0.2865703964 0.8374022355 0.4491681609  Biso 1.0 Ag
Ag4 1.0000000000 0.8882340746 0.8374022355 0.0508318391  Biso 1.0 Ag
Ca5 1.0000000000 0.2960728529 0.5460728529 0.7500000000  Biso 1.0 Ca
Ca6 1.0000000000 0.7039271471 0.4539271471 0.2500000000  Biso 1.0 Ca
