# AFLOW.org Repositories
# Ag2Er1   [BCT,BCT2,tI6] (STD_PRIM doi:10
data_Ag2Er1
_pd_phase_name Ag2Er1
_cell_length_a  5.3209209640
_cell_length_b  5.3209209640
_cell_length_c  5.3209209640
_cell_angle_alpha  139.1692368185
_cell_angle_beta  139.1692368185
_cell_angle_gamma  59.1168939152
_symmetry_space_group_name_H-M  'P1'
_symmetry_Int_Tables_Number  1
loop_
_symmetry_equiv_pos_site_id
_symmetry_equiv_pos_as_xyz
  1  x,y,z
loop_
 _atom_site_label
 _atom_site_occupancy
 _atom_site_fract_x
 _atom_site_fract_y
 _atom_site_fract_z
 _atom_site_thermal_displace_type
 _atom_site_B_iso_or_equiv
 _atom_site_type_symbol
Ag1 1.0000000000 0.3305307550 0.3305307550 0.0000000000  Biso 1.0 Ag
Ag2 1.0000000000 0.6694692450 0.6694692450 0.0000000000  Biso 1.0 Ag
Er3 1.0000000000 0.0000000000 0.0000000000 0.0000000000  Biso 1.0 Er
