# AFLOW.org Repositories
# Ag2Hg1I4   [TET,TET,tP7] (STD_PRIM doi:1
data_Ag2Hg1I4
_pd_phase_name Ag2Hg1I4
_cell_length_a  6.5441867796
_cell_length_b  6.5441867796
_cell_length_c  6.4892608622
_cell_angle_alpha  90.0000000000
_cell_angle_beta  90.0000000000
_cell_angle_gamma  90.0000000000
_symmetry_space_group_name_H-M  'P1'
_symmetry_Int_Tables_Number  1
loop_
_symmetry_equiv_pos_site_id
_symmetry_equiv_pos_as_xyz
  1  x,y,z
loop_
 _atom_site_label
 _atom_site_occupancy
 _atom_site_fract_x
 _atom_site_fract_y
 _atom_site_fract_z
 _atom_site_thermal_displace_type
 _atom_site_B_iso_or_equiv
 _atom_site_type_symbol
Ag1 1.0000000000 0.5000000000 0.0000000000 0.5000000000  Biso 1.0 Ag
Ag2 1.0000000000 0.0000000000 0.5000000000 0.5000000000  Biso 1.0 Ag
Hg3 1.0000000000 0.0000000000 0.0000000000 0.0000000000  Biso 1.0 Hg
I4 1.0000000000 0.7374521892 0.7374521892 0.7649450537  Biso 1.0 I
I5 1.0000000000 0.2625478108 0.2625478108 0.7649450537  Biso 1.0 I
I6 1.0000000000 0.2625478108 0.7374521892 0.2350549463  Biso 1.0 I
I7 1.0000000000 0.7374521892 0.2625478108 0.2350549463  Biso 1.0 I
