# AFLOW.org Repositories
# Ag2Si2Tb1   [BCT,BCT2,tI10] (STD_PRIM do
data_Ag2Si2Tb1
_pd_phase_name Ag2Si2Tb1
_cell_length_a  6.2142652439
_cell_length_b  6.2142652439
_cell_length_c  6.2142652439
_cell_angle_alpha  141.1450019524
_cell_angle_beta  141.1450019524
_cell_angle_gamma  56.1188325779
_symmetry_space_group_name_H-M  'P1'
_symmetry_Int_Tables_Number  1
loop_
_symmetry_equiv_pos_site_id
_symmetry_equiv_pos_as_xyz
  1  x,y,z
loop_
 _atom_site_label
 _atom_site_occupancy
 _atom_site_fract_x
 _atom_site_fract_y
 _atom_site_fract_z
 _atom_site_thermal_displace_type
 _atom_site_B_iso_or_equiv
 _atom_site_type_symbol
Ag1 1.0000000000 0.7500000000 0.2500000000 0.5000000000  Biso 1.0 Ag
Ag2 1.0000000000 0.2500000000 0.7500000000 0.5000000000  Biso 1.0 Ag
Si3 1.0000000000 0.6043850582 0.6043850582 0.0000000000  Biso 1.0 Si
Si4 1.0000000000 0.3956149418 0.3956149418 0.0000000000  Biso 1.0 Si
Tb5 1.0000000000 0.0000000000 0.0000000000 0.0000000000  Biso 1.0 Tb
