# AFLOW.org Repositories
# Ag3Na1S2   [FCC,FCC,cF96] (STD_PRIM doi:
data_Ag3Na1S2
_pd_phase_name Ag3Na1S2
_cell_length_a  8.8901490425
_cell_length_b  8.8901490425
_cell_length_c  8.8901490425
_cell_angle_alpha  60.0000000000
_cell_angle_beta  60.0000000000
_cell_angle_gamma  60.0000000000
_symmetry_space_group_name_H-M  'P1'
_symmetry_Int_Tables_Number  1
loop_
_symmetry_equiv_pos_site_id
_symmetry_equiv_pos_as_xyz
  1  x,y,z
loop_
 _atom_site_label
 _atom_site_occupancy
 _atom_site_fract_x
 _atom_site_fract_y
 _atom_site_fract_z
 _atom_site_thermal_displace_type
 _atom_site_B_iso_or_equiv
 _atom_site_type_symbol
Ag1 1.0000000000 0.3005294432 0.8005294432 0.4494705568  Biso 1.0 Ag
Ag2 1.0000000000 0.9494705568 0.4494705568 0.8005294432  Biso 1.0 Ag
Ag3 1.0000000000 0.3005294432 0.4494705568 0.4494705568  Biso 1.0 Ag
Ag4 1.0000000000 0.9494705568 0.8005294432 0.8005294432  Biso 1.0 Ag
Ag5 1.0000000000 0.3005294432 0.4494705568 0.8005294432  Biso 1.0 Ag
Ag6 1.0000000000 0.9494705568 0.8005294432 0.4494705568  Biso 1.0 Ag
Ag7 1.0000000000 0.6994705568 0.1994705568 0.5505294432  Biso 1.0 Ag
Ag8 1.0000000000 0.0505294432 0.5505294432 0.1994705568  Biso 1.0 Ag
Ag9 1.0000000000 0.0505294432 0.1994705568 0.5505294432  Biso 1.0 Ag
Ag10 1.0000000000 0.6994705568 0.5505294432 0.1994705568  Biso 1.0 Ag
Ag11 1.0000000000 0.0505294432 0.1994705568 0.1994705568  Biso 1.0 Ag
Ag12 1.0000000000 0.6994705568 0.5505294432 0.5505294432  Biso 1.0 Ag
Na13 1.0000000000 0.0000000000 0.0000000000 0.0000000000  Biso 1.0 Na
Na14 1.0000000000 0.5000000000 0.5000000000 0.0000000000  Biso 1.0 Na
Na15 1.0000000000 0.5000000000 0.0000000000 0.5000000000  Biso 1.0 Na
Na16 1.0000000000 0.5000000000 0.0000000000 0.0000000000  Biso 1.0 Na
S17 1.0000000000 0.2905966172 0.2364677943 0.2364677943  Biso 1.0 S
S18 1.0000000000 0.7364677943 0.7905966172 0.2364677943  Biso 1.0 S
S19 1.0000000000 0.7364677943 0.2364677943 0.7905966172  Biso 1.0 S
S20 1.0000000000 0.7364677943 0.2364677943 0.2364677943  Biso 1.0 S
S21 1.0000000000 0.2635322057 0.2094033828 0.7635322057  Biso 1.0 S
S22 1.0000000000 0.7094033828 0.7635322057 0.7635322057  Biso 1.0 S
S23 1.0000000000 0.2635322057 0.7635322057 0.2094033828  Biso 1.0 S
S24 1.0000000000 0.2635322057 0.7635322057 0.7635322057  Biso 1.0 S
