# AFLOW.org Repositories
# Ag5O6Pb2   [HEX,HEX,hP13] (STD_PRIM doi:
data_Ag5O6Pb2
_pd_phase_name Ag5O6Pb2
_cell_length_a  6.0736212476
_cell_length_b  6.0736212476
_cell_length_c  6.5541012609
_cell_angle_alpha  90.0000000000
_cell_angle_beta  90.0000000000
_cell_angle_gamma  120.0000000000
_symmetry_space_group_name_H-M  'P1'
_symmetry_Int_Tables_Number  1
loop_
_symmetry_equiv_pos_site_id
_symmetry_equiv_pos_as_xyz
  1  x,y,z
loop_
 _atom_site_label
 _atom_site_occupancy
 _atom_site_fract_x
 _atom_site_fract_y
 _atom_site_fract_z
 _atom_site_thermal_displace_type
 _atom_site_B_iso_or_equiv
 _atom_site_type_symbol
Ag1 1.0000000000 0.0000000000 0.0000000000 0.2463287288  Biso 1.0 Ag
Ag2 1.0000000000 0.0000000000 0.0000000000 0.7536712712  Biso 1.0 Ag
Ag3 1.0000000000 0.5000000000 0.0000000000 0.0000000000  Biso 1.0 Ag
Ag4 1.0000000000 0.0000000000 0.5000000000 0.0000000000  Biso 1.0 Ag
Ag5 1.0000000000 0.5000000000 0.5000000000 0.0000000000  Biso 1.0 Ag
O6 1.0000000000 0.6210096678 0.0000000000 0.6896899950  Biso 1.0 O
O7 1.0000000000 0.0000000000 0.6210096678 0.6896899950  Biso 1.0 O
O8 1.0000000000 0.3790007216 0.3790007216 0.6896811069  Biso 1.0 O
O9 1.0000000000 0.0000000000 0.3789903322 0.3103100050  Biso 1.0 O
O10 1.0000000000 0.3789903322 0.0000000000 0.3103100050  Biso 1.0 O
O11 1.0000000000 0.6209992784 0.6209992784 0.3103188931  Biso 1.0 O
Pb12 1.0000000000 0.6666534857 0.3333465143 0.5000000000  Biso 1.0 Pb
Pb13 1.0000000000 0.3333465143 0.6666534857 0.5000000000  Biso 1.0 Pb
