# AFLOW.org Repositories
# Ag8Ca19N7   [FCC,FCC,cF136] (STD_PRIM do
data_Ag8Ca19N7
_pd_phase_name Ag8Ca19N7
_cell_length_a  10.3760327986
_cell_length_b  10.3760327986
_cell_length_c  10.3760327986
_cell_angle_alpha  60.0000000000
_cell_angle_beta  60.0000000000
_cell_angle_gamma  60.0000000000
_symmetry_space_group_name_H-M  'P1'
_symmetry_Int_Tables_Number  1
loop_
_symmetry_equiv_pos_site_id
_symmetry_equiv_pos_as_xyz
  1  x,y,z
loop_
 _atom_site_label
 _atom_site_occupancy
 _atom_site_fract_x
 _atom_site_fract_y
 _atom_site_fract_z
 _atom_site_thermal_displace_type
 _atom_site_B_iso_or_equiv
 _atom_site_type_symbol
Ag1 1.0000000000 0.1755366220 0.1755366220 0.1755366220  Biso 1.0 Ag
Ag2 1.0000000000 0.1755366220 0.1755366220 0.4733901340  Biso 1.0 Ag
Ag3 1.0000000000 0.1755366220 0.4733901340 0.1755366220  Biso 1.0 Ag
Ag4 1.0000000000 0.4733901340 0.1755366220 0.1755366220  Biso 1.0 Ag
Ag5 1.0000000000 0.8244633780 0.8244633780 0.5266098660  Biso 1.0 Ag
Ag6 1.0000000000 0.8244633780 0.8244633780 0.8244633780  Biso 1.0 Ag
Ag7 1.0000000000 0.8244633780 0.5266098660 0.8244633780  Biso 1.0 Ag
Ag8 1.0000000000 0.5266098660 0.8244633780 0.8244633780  Biso 1.0 Ag
Ca9 1.0000000000 0.5000000000 0.5000000000 0.5000000000  Biso 1.0 Ca
Ca10 1.0000000000 0.1651788535 0.8348211465 0.8348211465  Biso 1.0 Ca
Ca11 1.0000000000 0.8348211465 0.1651788535 0.1651788535  Biso 1.0 Ca
Ca12 1.0000000000 0.8348211465 0.1651788535 0.8348211465  Biso 1.0 Ca
Ca13 1.0000000000 0.1651788535 0.8348211465 0.1651788535  Biso 1.0 Ca
Ca14 1.0000000000 0.8348211465 0.8348211465 0.1651788535  Biso 1.0 Ca
Ca15 1.0000000000 0.1651788535 0.1651788535 0.8348211465  Biso 1.0 Ca
Ca16 1.0000000000 0.8275547309 0.1724452691 0.5000000000  Biso 1.0 Ca
Ca17 1.0000000000 0.1724452691 0.8275547309 0.5000000000  Biso 1.0 Ca
Ca18 1.0000000000 0.5000000000 0.5000000000 0.8275547309  Biso 1.0 Ca
Ca19 1.0000000000 0.5000000000 0.5000000000 0.1724452691  Biso 1.0 Ca
Ca20 1.0000000000 0.5000000000 0.8275547309 0.1724452691  Biso 1.0 Ca
Ca21 1.0000000000 0.5000000000 0.1724452691 0.8275547309  Biso 1.0 Ca
Ca22 1.0000000000 0.8275547309 0.5000000000 0.5000000000  Biso 1.0 Ca
Ca23 1.0000000000 0.1724452691 0.5000000000 0.5000000000  Biso 1.0 Ca
Ca24 1.0000000000 0.1724452691 0.5000000000 0.8275547309  Biso 1.0 Ca
Ca25 1.0000000000 0.8275547309 0.5000000000 0.1724452691  Biso 1.0 Ca
Ca26 1.0000000000 0.5000000000 0.8275547309 0.5000000000  Biso 1.0 Ca
Ca27 1.0000000000 0.5000000000 0.1724452691 0.5000000000  Biso 1.0 Ca
N28 1.0000000000 0.3260226006 0.6739773994 0.6739773994  Biso 1.0 N
N29 1.0000000000 0.6739773994 0.3260226006 0.3260226006  Biso 1.0 N
N30 1.0000000000 0.6739773994 0.3260226006 0.6739773994  Biso 1.0 N
N31 1.0000000000 0.3260226006 0.6739773994 0.3260226006  Biso 1.0 N
N32 1.0000000000 0.6739773994 0.6739773994 0.3260226006  Biso 1.0 N
N33 1.0000000000 0.3260226006 0.3260226006 0.6739773994  Biso 1.0 N
N34 1.0000000000 0.0000000000 0.0000000000 0.0000000000  Biso 1.0 N
