# AFLOW.org Repositories
# Al0.4C0.2Ta0.6   [CUB,CUB,cP24] (STD_PRI
data_Al0.4C0.2Ta0.6
_pd_phase_name Al0.4C0.2Ta0.6
_cell_length_a  7.1337809730
_cell_length_b  7.1337809730
_cell_length_c  7.1337809730
_cell_angle_alpha  90.0000000000
_cell_angle_beta  90.0000000000
_cell_angle_gamma  90.0000000000
_symmetry_space_group_name_H-M  'P1'
_symmetry_Int_Tables_Number  1
loop_
_symmetry_equiv_pos_site_id
_symmetry_equiv_pos_as_xyz
  1  x,y,z
loop_
 _atom_site_label
 _atom_site_occupancy
 _atom_site_fract_x
 _atom_site_fract_y
 _atom_site_fract_z
 _atom_site_thermal_displace_type
 _atom_site_B_iso_or_equiv
 _atom_site_type_symbol
Al1 1.0000000000 0.9297716133 0.9297716133 0.0702283867  Biso 1.0 Al
Al2 1.0000000000 0.5702283867 0.0702283867 0.5702283867  Biso 1.0 Al
Al3 1.0000000000 0.0702283867 0.4297716133 0.4297716133  Biso 1.0 Al
Al4 1.0000000000 0.4297716133 0.5702283867 0.9297716133  Biso 1.0 Al
Al5 1.0000000000 0.1797716133 0.6797716133 0.1797716133  Biso 1.0 Al
Al6 1.0000000000 0.3202283867 0.3202283867 0.6797716133  Biso 1.0 Al
Al7 1.0000000000 0.6797716133 0.8202283867 0.8202283867  Biso 1.0 Al
Al8 1.0000000000 0.8202283867 0.1797716133 0.3202283867  Biso 1.0 Al
C9 1.0000000000 0.6250000000 0.6250000000 0.3750000000  Biso 1.0 C
C10 1.0000000000 0.8750000000 0.3750000000 0.8750000000  Biso 1.0 C
C11 1.0000000000 0.3750000000 0.1250000000 0.1250000000  Biso 1.0 C
C12 1.0000000000 0.1250000000 0.8750000000 0.6250000000  Biso 1.0 C
Ta13 1.0000000000 0.8750000000 0.7952415376 0.4547584624  Biso 1.0 Ta
Ta14 1.0000000000 0.6250000000 0.2047584624 0.9547584624  Biso 1.0 Ta
Ta15 1.0000000000 0.1250000000 0.2952415376 0.0452415376  Biso 1.0 Ta
Ta16 1.0000000000 0.3750000000 0.7047584624 0.5452415376  Biso 1.0 Ta
Ta17 1.0000000000 0.5452415376 0.8750000000 0.2047584624  Biso 1.0 Ta
Ta18 1.0000000000 0.0452415376 0.6250000000 0.7952415376  Biso 1.0 Ta
Ta19 1.0000000000 0.9547584624 0.1250000000 0.7047584624  Biso 1.0 Ta
Ta20 1.0000000000 0.4547584624 0.3750000000 0.2952415376  Biso 1.0 Ta
Ta21 1.0000000000 0.7952415376 0.5452415376 0.1250000000  Biso 1.0 Ta
Ta22 1.0000000000 0.2047584624 0.0452415376 0.3750000000  Biso 1.0 Ta
Ta23 1.0000000000 0.2952415376 0.9547584624 0.8750000000  Biso 1.0 Ta
Ta24 1.0000000000 0.7047584624 0.4547584624 0.6250000000  Biso 1.0 Ta
