# AFLOW.org Repositories
# Al0.4C0.2Mo0.6   [CUB,CUB,cP24] (STD_PRI
data_Al0.4C0.2Mo0.6
_pd_phase_name Al0.4C0.2Mo0.6
_cell_length_a  6.9102226729
_cell_length_b  6.9102226729
_cell_length_c  6.9102226729
_cell_angle_alpha  90.0000000000
_cell_angle_beta  90.0000000000
_cell_angle_gamma  90.0000000000
_symmetry_space_group_name_H-M  'P1'
_symmetry_Int_Tables_Number  1
loop_
_symmetry_equiv_pos_site_id
_symmetry_equiv_pos_as_xyz
  1  x,y,z
loop_
 _atom_site_label
 _atom_site_occupancy
 _atom_site_fract_x
 _atom_site_fract_y
 _atom_site_fract_z
 _atom_site_thermal_displace_type
 _atom_site_B_iso_or_equiv
 _atom_site_type_symbol
Al1 1.0000000000 0.9339196490 0.9339196490 0.0660803510  Biso 1.0 Al
Al2 1.0000000000 0.5660803510 0.0660803510 0.5660803510  Biso 1.0 Al
Al3 1.0000000000 0.0660803510 0.4339196490 0.4339196490  Biso 1.0 Al
Al4 1.0000000000 0.4339196490 0.5660803510 0.9339196490  Biso 1.0 Al
Al5 1.0000000000 0.1839196490 0.6839196490 0.1839196490  Biso 1.0 Al
Al6 1.0000000000 0.3160803510 0.3160803510 0.6839196490  Biso 1.0 Al
Al7 1.0000000000 0.6839196490 0.8160803510 0.8160803510  Biso 1.0 Al
Al8 1.0000000000 0.8160803510 0.1839196490 0.3160803510  Biso 1.0 Al
C9 1.0000000000 0.6250000000 0.6250000000 0.3750000000  Biso 1.0 C
C10 1.0000000000 0.8750000000 0.3750000000 0.8750000000  Biso 1.0 C
C11 1.0000000000 0.3750000000 0.1250000000 0.1250000000  Biso 1.0 C
C12 1.0000000000 0.1250000000 0.8750000000 0.6250000000  Biso 1.0 C
Mo13 1.0000000000 0.8750000000 0.7987669503 0.4512330497  Biso 1.0 Mo
Mo14 1.0000000000 0.6250000000 0.2012330497 0.9512330497  Biso 1.0 Mo
Mo15 1.0000000000 0.1250000000 0.2987669503 0.0487669503  Biso 1.0 Mo
Mo16 1.0000000000 0.3750000000 0.7012330497 0.5487669503  Biso 1.0 Mo
Mo17 1.0000000000 0.5487669503 0.8750000000 0.2012330497  Biso 1.0 Mo
Mo18 1.0000000000 0.0487669503 0.6250000000 0.7987669503  Biso 1.0 Mo
Mo19 1.0000000000 0.9512330497 0.1250000000 0.7012330497  Biso 1.0 Mo
Mo20 1.0000000000 0.4512330497 0.3750000000 0.2987669503  Biso 1.0 Mo
Mo21 1.0000000000 0.7987669503 0.5487669503 0.1250000000  Biso 1.0 Mo
Mo22 1.0000000000 0.2012330497 0.0487669503 0.3750000000  Biso 1.0 Mo
Mo23 1.0000000000 0.2987669503 0.9512330497 0.8750000000  Biso 1.0 Mo
Mo24 1.0000000000 0.7012330497 0.4512330497 0.6250000000  Biso 1.0 Mo
