# AFLOW.org Repositories
# Al16Pd7Ti6   [FCC,FCC,cF116] (STD_PRIM d
data_Al16Pd7Ti6
_pd_phase_name Al16Pd7Ti6
_cell_length_a  8.6571221571
_cell_length_b  8.6571221571
_cell_length_c  8.6571221571
_cell_angle_alpha  60.0000000000
_cell_angle_beta  60.0000000000
_cell_angle_gamma  60.0000000000
_symmetry_space_group_name_H-M  'P1'
_symmetry_Int_Tables_Number  1
loop_
_symmetry_equiv_pos_site_id
_symmetry_equiv_pos_as_xyz
  1  x,y,z
loop_
 _atom_site_label
 _atom_site_occupancy
 _atom_site_fract_x
 _atom_site_fract_y
 _atom_site_fract_z
 _atom_site_thermal_displace_type
 _atom_site_B_iso_or_equiv
 _atom_site_type_symbol
Al1 1.0000000000 0.8798856668 0.3603429996 0.8798856668  Biso 1.0 Al
Al2 1.0000000000 0.8798856668 0.8798856668 0.3603429996  Biso 1.0 Al
Al3 1.0000000000 0.8798856668 0.8798856668 0.8798856668  Biso 1.0 Al
Al4 1.0000000000 0.3603429996 0.8798856668 0.8798856668  Biso 1.0 Al
Al5 1.0000000000 0.1201143332 0.1201143332 0.6396570004  Biso 1.0 Al
Al6 1.0000000000 0.1201143332 0.6396570004 0.1201143332  Biso 1.0 Al
Al7 1.0000000000 0.1201143332 0.1201143332 0.1201143332  Biso 1.0 Al
Al8 1.0000000000 0.6396570004 0.1201143332 0.1201143332  Biso 1.0 Al
Al9 1.0000000000 0.6630857239 0.0107428283 0.6630857239  Biso 1.0 Al
Al10 1.0000000000 0.6630857239 0.6630857239 0.0107428283  Biso 1.0 Al
Al11 1.0000000000 0.6630857239 0.6630857239 0.6630857239  Biso 1.0 Al
Al12 1.0000000000 0.0107428283 0.6630857239 0.6630857239  Biso 1.0 Al
Al13 1.0000000000 0.3369142761 0.3369142761 0.9892571717  Biso 1.0 Al
Al14 1.0000000000 0.3369142761 0.9892571717 0.3369142761  Biso 1.0 Al
Al15 1.0000000000 0.3369142761 0.3369142761 0.3369142761  Biso 1.0 Al
Al16 1.0000000000 0.9892571717 0.3369142761 0.3369142761  Biso 1.0 Al
Pd17 1.0000000000 0.0000000000 0.0000000000 0.0000000000  Biso 1.0 Pd
Pd18 1.0000000000 0.5000000000 0.5000000000 0.0000000000  Biso 1.0 Pd
Pd19 1.0000000000 0.0000000000 0.0000000000 0.5000000000  Biso 1.0 Pd
Pd20 1.0000000000 0.0000000000 0.5000000000 0.0000000000  Biso 1.0 Pd
Pd21 1.0000000000 0.5000000000 0.0000000000 0.5000000000  Biso 1.0 Pd
Pd22 1.0000000000 0.0000000000 0.5000000000 0.5000000000  Biso 1.0 Pd
Pd23 1.0000000000 0.5000000000 0.0000000000 0.0000000000  Biso 1.0 Pd
Ti24 1.0000000000 0.3246506917 0.3246506917 0.6753493083  Biso 1.0 Ti
Ti25 1.0000000000 0.6753493083 0.6753493083 0.3246506917  Biso 1.0 Ti
Ti26 1.0000000000 0.6753493083 0.3246506917 0.6753493083  Biso 1.0 Ti
Ti27 1.0000000000 0.3246506917 0.6753493083 0.3246506917  Biso 1.0 Ti
Ti28 1.0000000000 0.6753493083 0.3246506917 0.3246506917  Biso 1.0 Ti
Ti29 1.0000000000 0.3246506917 0.6753493083 0.6753493083  Biso 1.0 Ti
