# AFLOW.org Repositories
# Al16Hf6Os7   [FCC,FCC,cF116] (STD_PRIM d
data_Al16Hf6Os7
_pd_phase_name Al16Hf6Os7
_cell_length_a  8.7022135565
_cell_length_b  8.7022135565
_cell_length_c  8.7022135565
_cell_angle_alpha  60.0000000000
_cell_angle_beta  60.0000000000
_cell_angle_gamma  60.0000000000
_symmetry_space_group_name_H-M  'P1'
_symmetry_Int_Tables_Number  1
loop_
_symmetry_equiv_pos_site_id
_symmetry_equiv_pos_as_xyz
  1  x,y,z
loop_
 _atom_site_label
 _atom_site_occupancy
 _atom_site_fract_x
 _atom_site_fract_y
 _atom_site_fract_z
 _atom_site_thermal_displace_type
 _atom_site_B_iso_or_equiv
 _atom_site_type_symbol
Al1 1.0000000000 0.6411898223 0.1196033926 0.1196033926  Biso 1.0 Al
Al2 1.0000000000 0.1196033926 0.1196033926 0.1196033926  Biso 1.0 Al
Al3 1.0000000000 0.1196033926 0.6411898223 0.1196033926  Biso 1.0 Al
Al4 1.0000000000 0.1196033926 0.1196033926 0.6411898223  Biso 1.0 Al
Al5 1.0000000000 0.8803966074 0.8803966074 0.8803966074  Biso 1.0 Al
Al6 1.0000000000 0.3588101777 0.8803966074 0.8803966074  Biso 1.0 Al
Al7 1.0000000000 0.8803966074 0.3588101777 0.8803966074  Biso 1.0 Al
Al8 1.0000000000 0.8803966074 0.8803966074 0.3588101777  Biso 1.0 Al
Al9 1.0000000000 0.9898505160 0.3367164947 0.3367164947  Biso 1.0 Al
Al10 1.0000000000 0.3367164947 0.3367164947 0.3367164947  Biso 1.0 Al
Al11 1.0000000000 0.3367164947 0.9898505160 0.3367164947  Biso 1.0 Al
Al12 1.0000000000 0.3367164947 0.3367164947 0.9898505160  Biso 1.0 Al
Al13 1.0000000000 0.6632835053 0.6632835053 0.6632835053  Biso 1.0 Al
Al14 1.0000000000 0.0101494840 0.6632835053 0.6632835053  Biso 1.0 Al
Al15 1.0000000000 0.6632835053 0.0101494840 0.6632835053  Biso 1.0 Al
Al16 1.0000000000 0.6632835053 0.6632835053 0.0101494840  Biso 1.0 Al
Hf17 1.0000000000 0.7058894529 0.2941105471 0.7058894529  Biso 1.0 Hf
Hf18 1.0000000000 0.2941105471 0.7058894529 0.2941105471  Biso 1.0 Hf
Hf19 1.0000000000 0.7058894529 0.7058894529 0.2941105471  Biso 1.0 Hf
Hf20 1.0000000000 0.2941105471 0.2941105471 0.7058894529  Biso 1.0 Hf
Hf21 1.0000000000 0.7058894529 0.2941105471 0.2941105471  Biso 1.0 Hf
Hf22 1.0000000000 0.2941105471 0.7058894529 0.7058894529  Biso 1.0 Hf
Os23 1.0000000000 0.0000000000 0.0000000000 0.0000000000  Biso 1.0 Os
Os24 1.0000000000 0.5000000000 0.0000000000 0.5000000000  Biso 1.0 Os
Os25 1.0000000000 0.0000000000 0.5000000000 0.0000000000  Biso 1.0 Os
Os26 1.0000000000 0.5000000000 0.5000000000 0.0000000000  Biso 1.0 Os
Os27 1.0000000000 0.0000000000 0.0000000000 0.5000000000  Biso 1.0 Os
Os28 1.0000000000 0.5000000000 0.0000000000 0.0000000000  Biso 1.0 Os
Os29 1.0000000000 0.0000000000 0.5000000000 0.5000000000  Biso 1.0 Os
