# AFLOW.org Repositories
# Al16Ni7Sc6   [FCC,FCC,cF116] (STD_PRIM d
data_Al16Ni7Sc6
_pd_phase_name Al16Ni7Sc6
_cell_length_a  8.5963129172
_cell_length_b  8.5963129172
_cell_length_c  8.5963129172
_cell_angle_alpha  60.0000000000
_cell_angle_beta  60.0000000000
_cell_angle_gamma  60.0000000000
_symmetry_space_group_name_H-M  'P1'
_symmetry_Int_Tables_Number  1
loop_
_symmetry_equiv_pos_site_id
_symmetry_equiv_pos_as_xyz
  1  x,y,z
loop_
 _atom_site_label
 _atom_site_occupancy
 _atom_site_fract_x
 _atom_site_fract_y
 _atom_site_fract_z
 _atom_site_thermal_displace_type
 _atom_site_B_iso_or_equiv
 _atom_site_type_symbol
Al1 1.0000000000 0.1192029381 0.1192029381 0.6423911857  Biso 1.0 Al
Al2 1.0000000000 0.6423911857 0.1192029381 0.1192029381  Biso 1.0 Al
Al3 1.0000000000 0.1192029381 0.6423911857 0.1192029381  Biso 1.0 Al
Al4 1.0000000000 0.1192029381 0.1192029381 0.1192029381  Biso 1.0 Al
Al5 1.0000000000 0.3576088143 0.8807970619 0.8807970619  Biso 1.0 Al
Al6 1.0000000000 0.8807970619 0.8807970619 0.3576088143  Biso 1.0 Al
Al7 1.0000000000 0.8807970619 0.3576088143 0.8807970619  Biso 1.0 Al
Al8 1.0000000000 0.8807970619 0.8807970619 0.8807970619  Biso 1.0 Al
Al9 1.0000000000 0.3325713183 0.3325713183 0.0022860450  Biso 1.0 Al
Al10 1.0000000000 0.0022860450 0.3325713183 0.3325713183  Biso 1.0 Al
Al11 1.0000000000 0.3325713183 0.0022860450 0.3325713183  Biso 1.0 Al
Al12 1.0000000000 0.3325713183 0.3325713183 0.3325713183  Biso 1.0 Al
Al13 1.0000000000 0.9977139550 0.6674286817 0.6674286817  Biso 1.0 Al
Al14 1.0000000000 0.6674286817 0.6674286817 0.9977139550  Biso 1.0 Al
Al15 1.0000000000 0.6674286817 0.9977139550 0.6674286817  Biso 1.0 Al
Al16 1.0000000000 0.6674286817 0.6674286817 0.6674286817  Biso 1.0 Al
Ni17 1.0000000000 0.0000000000 0.0000000000 0.0000000000  Biso 1.0 Ni
Ni18 1.0000000000 0.0000000000 0.0000000000 0.5000000000  Biso 1.0 Ni
Ni19 1.0000000000 0.5000000000 0.5000000000 0.0000000000  Biso 1.0 Ni
Ni20 1.0000000000 0.0000000000 0.5000000000 0.5000000000  Biso 1.0 Ni
Ni21 1.0000000000 0.5000000000 0.0000000000 0.0000000000  Biso 1.0 Ni
Ni22 1.0000000000 0.5000000000 0.0000000000 0.5000000000  Biso 1.0 Ni
Ni23 1.0000000000 0.0000000000 0.5000000000 0.0000000000  Biso 1.0 Ni
Sc24 1.0000000000 0.3036863333 0.3036863333 0.6963136667  Biso 1.0 Sc
Sc25 1.0000000000 0.6963136667 0.6963136667 0.3036863333  Biso 1.0 Sc
Sc26 1.0000000000 0.3036863333 0.6963136667 0.6963136667  Biso 1.0 Sc
Sc27 1.0000000000 0.6963136667 0.3036863333 0.3036863333  Biso 1.0 Sc
Sc28 1.0000000000 0.6963136667 0.3036863333 0.6963136667  Biso 1.0 Sc
Sc29 1.0000000000 0.3036863333 0.6963136667 0.3036863333  Biso 1.0 Sc
