# AFLOW.org Repositories
# Al18Mg3V2   [FCC,FCC,cF184] (STD_PRIM do
data_Al18Mg3V2
_pd_phase_name Al18Mg3V2
_cell_length_a  10.3279345843
_cell_length_b  10.3279345843
_cell_length_c  10.3279345843
_cell_angle_alpha  60.0000000000
_cell_angle_beta  60.0000000000
_cell_angle_gamma  60.0000000000
_symmetry_space_group_name_H-M  'P1'
_symmetry_Int_Tables_Number  1
loop_
_symmetry_equiv_pos_site_id
_symmetry_equiv_pos_as_xyz
  1  x,y,z
loop_
 _atom_site_label
 _atom_site_occupancy
 _atom_site_fract_x
 _atom_site_fract_y
 _atom_site_fract_z
 _atom_site_thermal_displace_type
 _atom_site_B_iso_or_equiv
 _atom_site_type_symbol
Al1 1.0000000000 0.4849741110 0.2650258890 0.7650258890  Biso 1.0 Al
Al2 1.0000000000 0.7650258890 0.9849741110 0.4849741110  Biso 1.0 Al
Al3 1.0000000000 0.4849741110 0.2650258890 0.4849741110  Biso 1.0 Al
Al4 1.0000000000 0.7650258890 0.9849741110 0.7650258890  Biso 1.0 Al
Al5 1.0000000000 0.7650258890 0.2650258890 0.4849741110  Biso 1.0 Al
Al6 1.0000000000 0.4849741110 0.9849741110 0.7650258890  Biso 1.0 Al
Al7 1.0000000000 0.2349741110 0.0150258890 0.2349741110  Biso 1.0 Al
Al8 1.0000000000 0.5150258890 0.7349741110 0.5150258890  Biso 1.0 Al
Al9 1.0000000000 0.2349741110 0.0150258890 0.5150258890  Biso 1.0 Al
Al10 1.0000000000 0.5150258890 0.7349741110 0.2349741110  Biso 1.0 Al
Al11 1.0000000000 0.2349741110 0.7349741110 0.5150258890  Biso 1.0 Al
Al12 1.0000000000 0.5150258890 0.0150258890 0.2349741110  Biso 1.0 Al
Al13 1.0000000000 0.7931928590 0.5577031999 0.3245519706  Biso 1.0 Al
Al14 1.0000000000 0.0577031999 0.2931928590 0.3245519706  Biso 1.0 Al
Al15 1.0000000000 0.3245519706 0.8245519706 0.7931928590  Biso 1.0 Al
Al16 1.0000000000 0.3245519706 0.8245519706 0.0577031999  Biso 1.0 Al
Al17 1.0000000000 0.3245519706 0.5577031999 0.7931928590  Biso 1.0 Al
Al18 1.0000000000 0.3245519706 0.2931928590 0.0577031999  Biso 1.0 Al
Al19 1.0000000000 0.0577031999 0.8245519706 0.3245519706  Biso 1.0 Al
Al20 1.0000000000 0.7931928590 0.8245519706 0.3245519706  Biso 1.0 Al
Al21 1.0000000000 0.3245519706 0.5577031999 0.3245519706  Biso 1.0 Al
Al22 1.0000000000 0.3245519706 0.2931928590 0.3245519706  Biso 1.0 Al
Al23 1.0000000000 0.7931928590 0.8245519706 0.0577031999  Biso 1.0 Al
Al24 1.0000000000 0.0577031999 0.8245519706 0.7931928590  Biso 1.0 Al
Al25 1.0000000000 0.9422968001 0.7068071410 0.6754480294  Biso 1.0 Al
Al26 1.0000000000 0.2068071410 0.4422968001 0.6754480294  Biso 1.0 Al
Al27 1.0000000000 0.6754480294 0.1754480294 0.2068071410  Biso 1.0 Al
Al28 1.0000000000 0.6754480294 0.1754480294 0.9422968001  Biso 1.0 Al
Al29 1.0000000000 0.9422968001 0.1754480294 0.2068071410  Biso 1.0 Al
Al30 1.0000000000 0.2068071410 0.1754480294 0.9422968001  Biso 1.0 Al
Al31 1.0000000000 0.6754480294 0.4422968001 0.6754480294  Biso 1.0 Al
Al32 1.0000000000 0.6754480294 0.7068071410 0.6754480294  Biso 1.0 Al
Al33 1.0000000000 0.9422968001 0.1754480294 0.6754480294  Biso 1.0 Al
Al34 1.0000000000 0.2068071410 0.1754480294 0.6754480294  Biso 1.0 Al
Al35 1.0000000000 0.6754480294 0.7068071410 0.9422968001  Biso 1.0 Al
Al36 1.0000000000 0.6754480294 0.4422968001 0.2068071410  Biso 1.0 Al
Mg37 1.0000000000 0.0000000000 0.0000000000 0.0000000000  Biso 1.0 Mg
Mg38 1.0000000000 0.5000000000 0.5000000000 0.0000000000  Biso 1.0 Mg
Mg39 1.0000000000 0.0000000000 0.5000000000 0.0000000000  Biso 1.0 Mg
Mg40 1.0000000000 0.0000000000 0.5000000000 0.5000000000  Biso 1.0 Mg
Mg41 1.0000000000 0.1250000000 0.6250000000 0.1250000000  Biso 1.0 Mg
Mg42 1.0000000000 0.8750000000 0.3750000000 0.8750000000  Biso 1.0 Mg
V43 1.0000000000 0.5000000000 0.5000000000 0.5000000000  Biso 1.0 V
V44 1.0000000000 0.0000000000 0.0000000000 0.5000000000  Biso 1.0 V
V45 1.0000000000 0.5000000000 0.0000000000 0.5000000000  Biso 1.0 V
V46 1.0000000000 0.5000000000 0.0000000000 0.0000000000  Biso 1.0 V
