# AFLOW.org Repositories
# Al18Mg3Ta2   [FCC,FCC,cF184] (STD_PRIM d
data_Al18Mg3Ta2
_pd_phase_name Al18Mg3Ta2
_cell_length_a  10.5087080291
_cell_length_b  10.5087080291
_cell_length_c  10.5087080291
_cell_angle_alpha  60.0000000000
_cell_angle_beta  60.0000000000
_cell_angle_gamma  60.0000000000
_symmetry_space_group_name_H-M  'P1'
_symmetry_Int_Tables_Number  1
loop_
_symmetry_equiv_pos_site_id
_symmetry_equiv_pos_as_xyz
  1  x,y,z
loop_
 _atom_site_label
 _atom_site_occupancy
 _atom_site_fract_x
 _atom_site_fract_y
 _atom_site_fract_z
 _atom_site_thermal_displace_type
 _atom_site_B_iso_or_equiv
 _atom_site_type_symbol
Al1 1.0000000000 0.4823547700 0.4823547700 0.2676452300  Biso 1.0 Al
Al2 1.0000000000 0.7676452300 0.7676452300 0.9823547700  Biso 1.0 Al
Al3 1.0000000000 0.4823547700 0.7676452300 0.2676452300  Biso 1.0 Al
Al4 1.0000000000 0.7676452300 0.4823547700 0.9823547700  Biso 1.0 Al
Al5 1.0000000000 0.7676452300 0.4823547700 0.2676452300  Biso 1.0 Al
Al6 1.0000000000 0.4823547700 0.7676452300 0.9823547700  Biso 1.0 Al
Al7 1.0000000000 0.2323547700 0.5176452300 0.0176452300  Biso 1.0 Al
Al8 1.0000000000 0.5176452300 0.2323547700 0.7323547700  Biso 1.0 Al
Al9 1.0000000000 0.2323547700 0.2323547700 0.0176452300  Biso 1.0 Al
Al10 1.0000000000 0.5176452300 0.5176452300 0.7323547700  Biso 1.0 Al
Al11 1.0000000000 0.2323547700 0.5176452300 0.7323547700  Biso 1.0 Al
Al12 1.0000000000 0.5176452300 0.2323547700 0.0176452300  Biso 1.0 Al
Al13 1.0000000000 0.7968948718 0.3223095316 0.5584860651  Biso 1.0 Al
Al14 1.0000000000 0.0584860651 0.3223095316 0.2968948718  Biso 1.0 Al
Al15 1.0000000000 0.3223095316 0.0584860651 0.8223095316  Biso 1.0 Al
Al16 1.0000000000 0.3223095316 0.7968948718 0.8223095316  Biso 1.0 Al
Al17 1.0000000000 0.3223095316 0.3223095316 0.5584860651  Biso 1.0 Al
Al18 1.0000000000 0.3223095316 0.3223095316 0.2968948718  Biso 1.0 Al
Al19 1.0000000000 0.0584860651 0.7968948718 0.8223095316  Biso 1.0 Al
Al20 1.0000000000 0.7968948718 0.0584860651 0.8223095316  Biso 1.0 Al
Al21 1.0000000000 0.3223095316 0.7968948718 0.5584860651  Biso 1.0 Al
Al22 1.0000000000 0.3223095316 0.0584860651 0.2968948718  Biso 1.0 Al
Al23 1.0000000000 0.7968948718 0.3223095316 0.8223095316  Biso 1.0 Al
Al24 1.0000000000 0.0584860651 0.3223095316 0.8223095315  Biso 1.0 Al
Al25 1.0000000000 0.9415139350 0.6776904684 0.7031051282  Biso 1.0 Al
Al26 1.0000000000 0.2031051282 0.6776904684 0.4415139349  Biso 1.0 Al
Al27 1.0000000000 0.6776904685 0.9415139349 0.1776904684  Biso 1.0 Al
Al28 1.0000000000 0.6776904685 0.2031051282 0.1776904684  Biso 1.0 Al
Al29 1.0000000000 0.9415139350 0.6776904684 0.1776904684  Biso 1.0 Al
Al30 1.0000000000 0.2031051282 0.6776904684 0.1776904684  Biso 1.0 Al
Al31 1.0000000000 0.6776904685 0.2031051282 0.4415139349  Biso 1.0 Al
Al32 1.0000000000 0.6776904684 0.9415139349 0.7031051282  Biso 1.0 Al
Al33 1.0000000000 0.9415139349 0.2031051282 0.1776904684  Biso 1.0 Al
Al34 1.0000000000 0.2031051282 0.9415139349 0.1776904684  Biso 1.0 Al
Al35 1.0000000000 0.6776904685 0.6776904684 0.7031051282  Biso 1.0 Al
Al36 1.0000000000 0.6776904685 0.6776904684 0.4415139349  Biso 1.0 Al
Mg37 1.0000000000 0.0000000000 0.0000000000 0.0000000000  Biso 1.0 Mg
Mg38 1.0000000000 0.5000000000 0.0000000000 0.5000000000  Biso 1.0 Mg
Mg39 1.0000000000 0.0000000000 0.5000000000 0.5000000000  Biso 1.0 Mg
Mg40 1.0000000000 0.0000000000 0.0000000000 0.5000000000  Biso 1.0 Mg
Mg41 1.0000000000 0.1250000000 0.1250000000 0.6250000000  Biso 1.0 Mg
Mg42 1.0000000000 0.8750000000 0.8750000000 0.3750000000  Biso 1.0 Mg
Ta43 1.0000000000 0.5000000000 0.5000000000 0.5000000000  Biso 1.0 Ta
Ta44 1.0000000000 0.0000000000 0.5000000000 0.0000000000  Biso 1.0 Ta
Ta45 1.0000000000 0.5000000000 0.0000000000 0.0000000000  Biso 1.0 Ta
Ta46 1.0000000000 0.5000000000 0.5000000000 0.0000000000  Biso 1.0 Ta
