# AFLOW.org Repositories
# Al18Cr2Mg3   [FCC,FCC,cF184] (STD_PRIM d
data_Al18Cr2Mg3
_pd_phase_name Al18Cr2Mg3
_cell_length_a  10.2407328623
_cell_length_b  10.2407328623
_cell_length_c  10.2407328623
_cell_angle_alpha  60.0000000000
_cell_angle_beta  60.0000000000
_cell_angle_gamma  60.0000000000
_symmetry_space_group_name_H-M  'P1'
_symmetry_Int_Tables_Number  1
loop_
_symmetry_equiv_pos_site_id
_symmetry_equiv_pos_as_xyz
  1  x,y,z
loop_
 _atom_site_label
 _atom_site_occupancy
 _atom_site_fract_x
 _atom_site_fract_y
 _atom_site_fract_z
 _atom_site_thermal_displace_type
 _atom_site_B_iso_or_equiv
 _atom_site_type_symbol
Al1 1.0000000000 0.8603618685 0.1396381315 0.8603618685  Biso 1.0 Al
Al2 1.0000000000 0.1396381315 0.8603618685 0.1396381315  Biso 1.0 Al
Al3 1.0000000000 0.8603618685 0.8603618685 0.1396381315  Biso 1.0 Al
Al4 1.0000000000 0.1396381315 0.1396381315 0.8603618685  Biso 1.0 Al
Al5 1.0000000000 0.8603618685 0.1396381315 0.1396381315  Biso 1.0 Al
Al6 1.0000000000 0.1396381315 0.8603618685 0.8603618685  Biso 1.0 Al
Al7 1.0000000000 0.1103618685 0.1103618685 0.3896381315  Biso 1.0 Al
Al8 1.0000000000 0.3896381315 0.3896381315 0.1103618685  Biso 1.0 Al
Al9 1.0000000000 0.1103618685 0.3896381315 0.1103618685  Biso 1.0 Al
Al10 1.0000000000 0.3896381315 0.1103618685 0.3896381315  Biso 1.0 Al
Al11 1.0000000000 0.3896381315 0.1103618685 0.1103618685  Biso 1.0 Al
Al12 1.0000000000 0.1103618685 0.3896381315 0.3896381315  Biso 1.0 Al
Al13 1.0000000000 0.5668585506 0.2998947680 0.2998947680  Biso 1.0 Al
Al14 1.0000000000 0.8333519134 0.2998947680 0.2998947680  Biso 1.0 Al
Al15 1.0000000000 0.2998947680 0.5668585506 0.8333519134  Biso 1.0 Al
Al16 1.0000000000 0.2998947680 0.8333519134 0.5668585506  Biso 1.0 Al
Al17 1.0000000000 0.5668585506 0.2998947680 0.8333519134  Biso 1.0 Al
Al18 1.0000000000 0.8333519134 0.2998947680 0.5668585506  Biso 1.0 Al
Al19 1.0000000000 0.2998947680 0.8333519134 0.2998947680  Biso 1.0 Al
Al20 1.0000000000 0.2998947680 0.5668585506 0.2998947680  Biso 1.0 Al
Al21 1.0000000000 0.5668585506 0.8333519134 0.2998947680  Biso 1.0 Al
Al22 1.0000000000 0.8333519134 0.5668585506 0.2998947680  Biso 1.0 Al
Al23 1.0000000000 0.2998947680 0.2998947680 0.5668585506  Biso 1.0 Al
Al24 1.0000000000 0.2998947680 0.2998947680 0.8333519134  Biso 1.0 Al
Al25 1.0000000000 0.4166480866 0.9501052320 0.9501052320  Biso 1.0 Al
Al26 1.0000000000 0.6831414494 0.9501052320 0.9501052320  Biso 1.0 Al
Al27 1.0000000000 0.9501052320 0.6831414494 0.4166480866  Biso 1.0 Al
Al28 1.0000000000 0.9501052320 0.4166480866 0.6831414494  Biso 1.0 Al
Al29 1.0000000000 0.9501052320 0.9501052320 0.4166480866  Biso 1.0 Al
Al30 1.0000000000 0.9501052320 0.9501052320 0.6831414494  Biso 1.0 Al
Al31 1.0000000000 0.6831414494 0.4166480866 0.9501052320  Biso 1.0 Al
Al32 1.0000000000 0.4166480866 0.6831414494 0.9501052320  Biso 1.0 Al
Al33 1.0000000000 0.9501052320 0.4166480866 0.9501052320  Biso 1.0 Al
Al34 1.0000000000 0.9501052320 0.6831414494 0.9501052320  Biso 1.0 Al
Al35 1.0000000000 0.4166480866 0.9501052320 0.6831414494  Biso 1.0 Al
Al36 1.0000000000 0.6831414494 0.9501052320 0.4166480866  Biso 1.0 Al
Cr37 1.0000000000 0.6250000000 0.1250000000 0.1250000000  Biso 1.0 Cr
Cr38 1.0000000000 0.1250000000 0.1250000000 0.1250000000  Biso 1.0 Cr
Cr39 1.0000000000 0.1250000000 0.6250000000 0.1250000000  Biso 1.0 Cr
Cr40 1.0000000000 0.1250000000 0.1250000000 0.6250000000  Biso 1.0 Cr
Mg41 1.0000000000 0.5000000000 0.5000000000 0.5000000000  Biso 1.0 Mg
Mg42 1.0000000000 0.7500000000 0.7500000000 0.7500000000  Biso 1.0 Mg
Mg43 1.0000000000 0.1250000000 0.6250000000 0.6250000000  Biso 1.0 Mg
Mg44 1.0000000000 0.6250000000 0.6250000000 0.6250000000  Biso 1.0 Mg
Mg45 1.0000000000 0.6250000000 0.1250000000 0.6250000000  Biso 1.0 Mg
Mg46 1.0000000000 0.6250000000 0.6250000000 0.1250000000  Biso 1.0 Mg
