# AFLOW.org Repositories
# Al1Au2   [ORC,ORC,oP12] (STD_PRIM doi:10
data_Al1Au2
_pd_phase_name Al1Au2
_cell_length_a  3.2492455014
_cell_length_b  6.8254261526
_cell_length_c  9.0478651523
_cell_angle_alpha  90.0000000000
_cell_angle_beta  90.0000000000
_cell_angle_gamma  90.0000000000
_symmetry_space_group_name_H-M  'P1'
_symmetry_Int_Tables_Number  1
loop_
_symmetry_equiv_pos_site_id
_symmetry_equiv_pos_as_xyz
  1  x,y,z
loop_
 _atom_site_label
 _atom_site_occupancy
 _atom_site_fract_x
 _atom_site_fract_y
 _atom_site_fract_z
 _atom_site_thermal_displace_type
 _atom_site_B_iso_or_equiv
 _atom_site_type_symbol
Al1 1.0000000000 0.2500000000 0.1308363661 0.7765863468  Biso 1.0 Al
Al2 1.0000000000 0.7500000000 0.3691636339 0.2765863468  Biso 1.0 Al
Al3 1.0000000000 0.7500000000 0.8691636339 0.2234136532  Biso 1.0 Al
Al4 1.0000000000 0.2500000000 0.6308363661 0.7234136532  Biso 1.0 Al
Au5 1.0000000000 0.2500000000 0.6485345751 0.4226869398  Biso 1.0 Au
Au6 1.0000000000 0.7500000000 0.8514654249 0.9226869398  Biso 1.0 Au
Au7 1.0000000000 0.7500000000 0.3514654249 0.5773130602  Biso 1.0 Au
Au8 1.0000000000 0.2500000000 0.1485345751 0.0773130602  Biso 1.0 Au
Au9 1.0000000000 0.2500000000 0.0889577311 0.3858579726  Biso 1.0 Au
Au10 1.0000000000 0.7500000000 0.4110422689 0.8858579726  Biso 1.0 Au
Au11 1.0000000000 0.7500000000 0.9110422689 0.6141420274  Biso 1.0 Au
Au12 1.0000000000 0.2500000000 0.5889577311 0.1141420274  Biso 1.0 Au
