# AFLOW.org Repositories
# Al1Au1Yb1   [ORC,ORC,oP12] (STD_PRIM doi
data_Al1Au1Yb1
_pd_phase_name Al1Au1Yb1
_cell_length_a  4.5414269729
_cell_length_b  7.2725404712
_cell_length_c  7.9243273393
_cell_angle_alpha  90.0000000000
_cell_angle_beta  90.0000000000
_cell_angle_gamma  90.0000000000
_symmetry_space_group_name_H-M  'P1'
_symmetry_Int_Tables_Number  1
loop_
_symmetry_equiv_pos_site_id
_symmetry_equiv_pos_as_xyz
  1  x,y,z
loop_
 _atom_site_label
 _atom_site_occupancy
 _atom_site_fract_x
 _atom_site_fract_y
 _atom_site_fract_z
 _atom_site_thermal_displace_type
 _atom_site_B_iso_or_equiv
 _atom_site_type_symbol
Al1 1.0000000000 0.2500000000 0.1495012176 0.9368820563  Biso 1.0 Al
Al2 1.0000000000 0.7500000000 0.3504987824 0.4368820563  Biso 1.0 Al
Al3 1.0000000000 0.7500000000 0.8504987824 0.0631179437  Biso 1.0 Al
Al4 1.0000000000 0.2500000000 0.6495012176 0.5631179437  Biso 1.0 Al
Au5 1.0000000000 0.2500000000 0.2859079844 0.6196580542  Biso 1.0 Au
Au6 1.0000000000 0.7500000000 0.2140920156 0.1196580542  Biso 1.0 Au
Au7 1.0000000000 0.7500000000 0.7140920156 0.3803419458  Biso 1.0 Au
Au8 1.0000000000 0.2500000000 0.7859079844 0.8803419458  Biso 1.0 Au
Yb9 1.0000000000 0.2500000000 0.0209959647 0.3192802685  Biso 1.0 Yb
Yb10 1.0000000000 0.7500000000 0.4790040353 0.8192802685  Biso 1.0 Yb
Yb11 1.0000000000 0.7500000000 0.9790040353 0.6807197315  Biso 1.0 Yb
Yb12 1.0000000000 0.2500000000 0.5209959647 0.1807197315  Biso 1.0 Yb
