# AFLOW.org Repositories
# Al1Au1O2   [HEX,HEX,hP8] (STD_PRIM doi:1
data_Al1Au1O2
_pd_phase_name Al1Au1O2
_cell_length_a  2.9303836321
_cell_length_b  2.9303836321
_cell_length_c  12.3507300733
_cell_angle_alpha  90.0000000000
_cell_angle_beta  90.0000000000
_cell_angle_gamma  120.0000000000
_symmetry_space_group_name_H-M  'P1'
_symmetry_Int_Tables_Number  1
loop_
_symmetry_equiv_pos_site_id
_symmetry_equiv_pos_as_xyz
  1  x,y,z
loop_
 _atom_site_label
 _atom_site_occupancy
 _atom_site_fract_x
 _atom_site_fract_y
 _atom_site_fract_z
 _atom_site_thermal_displace_type
 _atom_site_B_iso_or_equiv
 _atom_site_type_symbol
Al1 1.0000000000 0.0000000000 0.0000000000 0.0000000000  Biso 1.0 Al
Al2 1.0000000000 0.0000000000 0.0000000000 0.5000000000  Biso 1.0 Al
Au3 1.0000000000 0.3333916325 0.6666958163 0.2500000000  Biso 1.0 Au
Au4 1.0000000000 0.6666083675 0.3333041837 0.7500000000  Biso 1.0 Au
O5 1.0000000000 0.3333540605 0.6666770303 0.0769510162  Biso 1.0 O
O6 1.0000000000 0.6666459395 0.3333229697 0.5769510162  Biso 1.0 O
O7 1.0000000000 0.6666459395 0.3333229697 0.9230489838  Biso 1.0 O
O8 1.0000000000 0.3333540605 0.6666770303 0.4230489838  Biso 1.0 O
