# AFLOW.org Repositories
# Al1Au1Er1   [ORC,ORC,oP12] (STD_PRIM doi
data_Al1Au1Er1
_pd_phase_name Al1Au1Er1
_cell_length_a  4.4522104599
_cell_length_b  7.1448367344
_cell_length_c  7.7650598364
_cell_angle_alpha  90.0000000000
_cell_angle_beta  90.0000000000
_cell_angle_gamma  90.0000000000
_symmetry_space_group_name_H-M  'P1'
_symmetry_Int_Tables_Number  1
loop_
_symmetry_equiv_pos_site_id
_symmetry_equiv_pos_as_xyz
  1  x,y,z
loop_
 _atom_site_label
 _atom_site_occupancy
 _atom_site_fract_x
 _atom_site_fract_y
 _atom_site_fract_z
 _atom_site_thermal_displace_type
 _atom_site_B_iso_or_equiv
 _atom_site_type_symbol
Al1 1.0000000000 0.2500000000 0.1754554304 0.9231427427  Biso 1.0 Al
Al2 1.0000000000 0.7500000000 0.3245445696 0.4231427427  Biso 1.0 Al
Al3 1.0000000000 0.7500000000 0.8245445696 0.0768572573  Biso 1.0 Al
Al4 1.0000000000 0.2500000000 0.6754554304 0.5768572573  Biso 1.0 Al
Au5 1.0000000000 0.2500000000 0.2858783963 0.5964857054  Biso 1.0 Au
Au6 1.0000000000 0.7500000000 0.2141216037 0.0964857054  Biso 1.0 Au
Au7 1.0000000000 0.7500000000 0.7141216037 0.4035142946  Biso 1.0 Au
Au8 1.0000000000 0.2500000000 0.7858783963 0.9035142946  Biso 1.0 Au
Er9 1.0000000000 0.2500000000 0.0076814239 0.3029460186  Biso 1.0 Er
Er10 1.0000000000 0.7500000000 0.4923185761 0.8029460186  Biso 1.0 Er
Er11 1.0000000000 0.7500000000 0.9923185761 0.6970539814  Biso 1.0 Er
Er12 1.0000000000 0.2500000000 0.5076814239 0.1970539814  Biso 1.0 Er
