# AFLOW.org Repositories
# Al1Cl4Cu1   [TET,TET,tP12] (STD_PRIM doi
data_Al1Cl4Cu1
_pd_phase_name Al1Cl4Cu1
_cell_length_a  5.5900338262
_cell_length_b  5.5900338262
_cell_length_c  10.1100305359
_cell_angle_alpha  90.0000000000
_cell_angle_beta  90.0000000000
_cell_angle_gamma  90.0000000000
_symmetry_space_group_name_H-M  'P1'
_symmetry_Int_Tables_Number  1
loop_
_symmetry_equiv_pos_site_id
_symmetry_equiv_pos_as_xyz
  1  x,y,z
loop_
 _atom_site_label
 _atom_site_occupancy
 _atom_site_fract_x
 _atom_site_fract_y
 _atom_site_fract_z
 _atom_site_thermal_displace_type
 _atom_site_B_iso_or_equiv
 _atom_site_type_symbol
Al1 1.0000000000 0.0000000000 0.5000000000 0.2500000000  Biso 1.0 Al
Al2 1.0000000000 0.5000000000 0.0000000000 0.7500000000  Biso 1.0 Al
Cl3 1.0000000000 0.2259169265 0.2747575320 0.3719436881  Biso 1.0 Cl
Cl4 1.0000000000 0.7740830735 0.7252424680 0.3719436881  Biso 1.0 Cl
Cl5 1.0000000000 0.2747575320 0.7740830735 0.6280563119  Biso 1.0 Cl
Cl6 1.0000000000 0.7252424680 0.2259169265 0.6280563119  Biso 1.0 Cl
Cl7 1.0000000000 0.7740830735 0.2747575320 0.1280563119  Biso 1.0 Cl
Cl8 1.0000000000 0.2259169265 0.7252424680 0.1280563119  Biso 1.0 Cl
Cl9 1.0000000000 0.7252424680 0.7740830735 0.8719436881  Biso 1.0 Cl
Cl10 1.0000000000 0.2747575320 0.2259169265 0.8719436881  Biso 1.0 Cl
Cu11 1.0000000000 0.0000000000 0.0000000000 0.5000000000  Biso 1.0 Cu
Cu12 1.0000000000 0.0000000000 0.0000000000 0.0000000000  Biso 1.0 Cu
