# AFLOW.org Repositories
# Al1C1V2   [HEX,HEX,hP8] (STD_PRIM doi:10
data_Al1C1V2
_pd_phase_name Al1C1V2
_cell_length_a  2.9205168242
_cell_length_b  2.9205168242
_cell_length_c  13.2284156431
_cell_angle_alpha  90.0000000000
_cell_angle_beta  90.0000000000
_cell_angle_gamma  120.0000000000
_symmetry_space_group_name_H-M  'P1'
_symmetry_Int_Tables_Number  1
loop_
_symmetry_equiv_pos_site_id
_symmetry_equiv_pos_as_xyz
  1  x,y,z
loop_
 _atom_site_label
 _atom_site_occupancy
 _atom_site_fract_x
 _atom_site_fract_y
 _atom_site_fract_z
 _atom_site_thermal_displace_type
 _atom_site_B_iso_or_equiv
 _atom_site_type_symbol
Al1 1.0000000000 0.3333697307 0.6666848654 0.7500000000  Biso 1.0 Al
Al2 1.0000000000 0.6666302693 0.3333151346 0.2500000000  Biso 1.0 Al
C3 1.0000000000 0.0000000000 0.0000000000 0.0000000000  Biso 1.0 C
C4 1.0000000000 0.0000000000 0.0000000000 0.5000000000  Biso 1.0 C
V5 1.0000000000 0.3333424141 0.6666712071 0.0865671360  Biso 1.0 V
V6 1.0000000000 0.6666575859 0.3333287929 0.5865671360  Biso 1.0 V
V7 1.0000000000 0.6666575859 0.3333287929 0.9134328640  Biso 1.0 V
V8 1.0000000000 0.3333424141 0.6666712071 0.4134328640  Biso 1.0 V
