# AFLOW.org Repositories
# Al1Ca1Si1   [HEX,HEX,hP15] (STD_PRIM doi
data_Al1Ca1Si1
_pd_phase_name Al1Ca1Si1
_cell_length_a  4.2099001646
_cell_length_b  4.2099001646
_cell_length_c  21.7951692853
_cell_angle_alpha  90.0000000000
_cell_angle_beta  90.0000000000
_cell_angle_gamma  120.0000000000
_symmetry_space_group_name_H-M  'P1'
_symmetry_Int_Tables_Number  1
loop_
_symmetry_equiv_pos_site_id
_symmetry_equiv_pos_as_xyz
  1  x,y,z
loop_
 _atom_site_label
 _atom_site_occupancy
 _atom_site_fract_x
 _atom_site_fract_y
 _atom_site_fract_z
 _atom_site_thermal_displace_type
 _atom_site_B_iso_or_equiv
 _atom_site_type_symbol
Al1 1.0000000000 0.3332905742 0.6665811484 0.1086138159  Biso 1.0 Al
Al2 1.0000000000 0.3332907852 0.6665815703 0.3000042572  Biso 1.0 Al
Al3 1.0000000000 0.3332905639 0.6665811278 0.4923316581  Biso 1.0 Al
Al4 1.0000000000 0.6667105755 0.3334211510 0.7115156182  Biso 1.0 Al
Al5 1.0000000000 0.6667107156 0.3334214311 0.8893925940  Biso 1.0 Al
Ca6 1.0000000000 0.0000000000 0.0000000000 0.0000000000  Biso 1.0 Ca
Ca7 1.0000000000 0.0000000000 0.0000000000 0.2014585054  Biso 1.0 Ca
Ca8 1.0000000000 0.0000000000 0.0000000000 0.3992104315  Biso 1.0 Ca
Ca9 1.0000000000 0.0000000000 0.0000000000 0.6013038726  Biso 1.0 Ca
Ca10 1.0000000000 0.0000000000 0.0000000000 0.8004483379  Biso 1.0 Ca
Si11 1.0000000000 0.6667091393 0.3334182786 0.0935125200  Biso 1.0 Si
Si12 1.0000000000 0.6667078225 0.3334156450 0.3006053384  Biso 1.0 Si
Si13 1.0000000000 0.6667093754 0.3334187509 0.5073862869  Biso 1.0 Si
Si14 1.0000000000 0.3332912472 0.6665824944 0.6946431344  Biso 1.0 Si
Si15 1.0000000000 0.3332909865 0.6665819730 0.9063406959  Biso 1.0 Si
