# AFLOW.org Repositories
# Al1Cu1O2   [HEX,HEX,hP8] (STD_PRIM doi:1
data_Al1Cu1O2
_pd_phase_name Al1Cu1O2
_cell_length_a  2.8770031564
_cell_length_b  2.8770031564
_cell_length_c  11.3898212116
_cell_angle_alpha  90.0000000000
_cell_angle_beta  90.0000000000
_cell_angle_gamma  120.0000000000
_symmetry_space_group_name_H-M  'P1'
_symmetry_Int_Tables_Number  1
loop_
_symmetry_equiv_pos_site_id
_symmetry_equiv_pos_as_xyz
  1  x,y,z
loop_
 _atom_site_label
 _atom_site_occupancy
 _atom_site_fract_x
 _atom_site_fract_y
 _atom_site_fract_z
 _atom_site_thermal_displace_type
 _atom_site_B_iso_or_equiv
 _atom_site_type_symbol
Al1 1.0000000000 0.0000000000 0.0000000000 0.0000000000  Biso 1.0 Al
Al2 1.0000000000 0.0000000000 0.0000000000 0.5000000000  Biso 1.0 Al
Cu3 1.0000000000 0.3333539937 0.6666769968 0.2500000000  Biso 1.0 Cu
Cu4 1.0000000000 0.6666460063 0.3333230032 0.7500000000  Biso 1.0 Cu
O5 1.0000000000 0.3333639630 0.6666819815 0.0851634932  Biso 1.0 O
O6 1.0000000000 0.6666360370 0.3333180185 0.5851634932  Biso 1.0 O
O7 1.0000000000 0.6666360370 0.3333180185 0.9148365068  Biso 1.0 O
O8 1.0000000000 0.3333639630 0.6666819815 0.4148365068  Biso 1.0 O
