# AFLOW.org Repositories
# Al1Ca1Si1   [HEX,HEX,hP18] (STD_PRIM doi
data_Al1Ca1Si1
_pd_phase_name Al1Ca1Si1
_cell_length_a  4.2065252992
_cell_length_b  4.2065252992
_cell_length_c  26.1820771177
_cell_angle_alpha  90.0000000000
_cell_angle_beta  90.0000000000
_cell_angle_gamma  120.0000000000
_symmetry_space_group_name_H-M  'P1'
_symmetry_Int_Tables_Number  1
loop_
_symmetry_equiv_pos_site_id
_symmetry_equiv_pos_as_xyz
  1  x,y,z
loop_
 _atom_site_label
 _atom_site_occupancy
 _atom_site_fract_x
 _atom_site_fract_y
 _atom_site_fract_z
 _atom_site_thermal_displace_type
 _atom_site_B_iso_or_equiv
 _atom_site_type_symbol
Al1 1.0000000000 0.6666643397 0.3333286794 0.0909014752  Biso 1.0 Al
Al2 1.0000000000 0.3333356603 0.6666713206 0.5909014752  Biso 1.0 Al
Al3 1.0000000000 0.6666652104 0.3333304209 0.2515069512  Biso 1.0 Al
Al4 1.0000000000 0.3333347896 0.6666695791 0.7515069512  Biso 1.0 Al
Al5 1.0000000000 0.6666645502 0.3333291003 0.4104661341  Biso 1.0 Al
Al6 1.0000000000 0.3333354498 0.6666708997 0.9104661341  Biso 1.0 Al
Ca7 1.0000000000 0.0000000000 0.0000000000 0.0000000000  Biso 1.0 Ca
Ca8 1.0000000000 0.0000000000 0.0000000000 0.5006398057  Biso 1.0 Ca
Ca9 1.0000000000 0.0000000000 0.0000000000 0.1686909591  Biso 1.0 Ca
Ca10 1.0000000000 0.0000000000 0.0000000000 0.6686909591  Biso 1.0 Ca
Ca11 1.0000000000 0.0000000000 0.0000000000 0.3329262910  Biso 1.0 Ca
Ca12 1.0000000000 0.0000000000 0.0000000000 0.8329262910  Biso 1.0 Ca
Si13 1.0000000000 0.3333345408 0.6666690816 0.0790352579  Biso 1.0 Si
Si14 1.0000000000 0.6666654592 0.3333309184 0.5790352579  Biso 1.0 Si
Si15 1.0000000000 0.3333355092 0.6666710183 0.2501901405  Biso 1.0 Si
Si16 1.0000000000 0.6666644908 0.3333289817 0.7501901405  Biso 1.0 Si
Si17 1.0000000000 0.3333347647 0.6666695294 0.4220029854  Biso 1.0 Si
Si18 1.0000000000 0.6666652353 0.3333304706 0.9220029854  Biso 1.0 Si
