# AFLOW.org Repositories
# Al1Ca3Sb3   [ORC,ORC,oP28] (STD_PRIM doi
data_Al1Ca3Sb3
_pd_phase_name Al1Ca3Sb3
_cell_length_a  4.5261255003
_cell_length_b  12.9605127645
_cell_length_c  14.3396182803
_cell_angle_alpha  90.0000000000
_cell_angle_beta  90.0000000000
_cell_angle_gamma  90.0000000000
_symmetry_space_group_name_H-M  'P1'
_symmetry_Int_Tables_Number  1
loop_
_symmetry_equiv_pos_site_id
_symmetry_equiv_pos_as_xyz
  1  x,y,z
loop_
 _atom_site_label
 _atom_site_occupancy
 _atom_site_fract_x
 _atom_site_fract_y
 _atom_site_fract_z
 _atom_site_thermal_displace_type
 _atom_site_B_iso_or_equiv
 _atom_site_type_symbol
Al1 1.0000000000 0.2500000000 0.0673769328 0.2968146833  Biso 1.0 Al
Al2 1.0000000000 0.7500000000 0.4326230672 0.7968146833  Biso 1.0 Al
Al3 1.0000000000 0.7500000000 0.9326230672 0.7031853167  Biso 1.0 Al
Al4 1.0000000000 0.2500000000 0.5673769328 0.2031853167  Biso 1.0 Al
Ca5 1.0000000000 0.2500000000 0.2729308558 0.7205929578  Biso 1.0 Ca
Ca6 1.0000000000 0.7500000000 0.2270691442 0.2205929578  Biso 1.0 Ca
Ca7 1.0000000000 0.7500000000 0.7270691442 0.2794070422  Biso 1.0 Ca
Ca8 1.0000000000 0.2500000000 0.7729308558 0.7794070422  Biso 1.0 Ca
Ca9 1.0000000000 0.2500000000 0.8496893935 0.4965170775  Biso 1.0 Ca
Ca10 1.0000000000 0.7500000000 0.6503106065 0.9965170775  Biso 1.0 Ca
Ca11 1.0000000000 0.7500000000 0.1503106065 0.5034829225  Biso 1.0 Ca
Ca12 1.0000000000 0.2500000000 0.3496893935 0.0034829225  Biso 1.0 Ca
Ca13 1.0000000000 0.2500000000 0.0586759021 0.8879840717  Biso 1.0 Ca
Ca14 1.0000000000 0.7500000000 0.4413240979 0.3879840717  Biso 1.0 Ca
Ca15 1.0000000000 0.7500000000 0.9413240979 0.1120159283  Biso 1.0 Ca
Ca16 1.0000000000 0.2500000000 0.5586759021 0.6120159283  Biso 1.0 Ca
Sb17 1.0000000000 0.2500000000 0.0403437171 0.6493258357  Biso 1.0 Sb
Sb18 1.0000000000 0.7500000000 0.4596562829 0.1493258357  Biso 1.0 Sb
Sb19 1.0000000000 0.7500000000 0.9596562829 0.3506741643  Biso 1.0 Sb
Sb20 1.0000000000 0.2500000000 0.5403437171 0.8506741643  Biso 1.0 Sb
Sb21 1.0000000000 0.2500000000 0.1136040237 0.1094131641  Biso 1.0 Sb
Sb22 1.0000000000 0.7500000000 0.3863959763 0.6094131641  Biso 1.0 Sb
Sb23 1.0000000000 0.7500000000 0.8863959763 0.8905868359  Biso 1.0 Sb
Sb24 1.0000000000 0.2500000000 0.6136040237 0.3905868359  Biso 1.0 Sb
Sb25 1.0000000000 0.2500000000 0.2564443844 0.3813472602  Biso 1.0 Sb
Sb26 1.0000000000 0.7500000000 0.2435556156 0.8813472602  Biso 1.0 Sb
Sb27 1.0000000000 0.7500000000 0.7435556156 0.6186527398  Biso 1.0 Sb
Sb28 1.0000000000 0.2500000000 0.7564443844 0.1186527398  Biso 1.0 Sb
