# AFLOW.org Repositories
# Al1Er2   [ORC,ORC,oP12] (STD_PRIM doi:10
data_Al1Er2
_pd_phase_name Al1Er2
_cell_length_a  5.0542561443
_cell_length_b  6.5030958065
_cell_length_c  9.3605082998
_cell_angle_alpha  90.0000000000
_cell_angle_beta  90.0000000000
_cell_angle_gamma  90.0000000000
_symmetry_space_group_name_H-M  'P1'
_symmetry_Int_Tables_Number  1
loop_
_symmetry_equiv_pos_site_id
_symmetry_equiv_pos_as_xyz
  1  x,y,z
loop_
 _atom_site_label
 _atom_site_occupancy
 _atom_site_fract_x
 _atom_site_fract_y
 _atom_site_fract_z
 _atom_site_thermal_displace_type
 _atom_site_B_iso_or_equiv
 _atom_site_type_symbol
Al1 1.0000000000 0.2500000000 0.2909480132 0.8961538569  Biso 1.0 Al
Al2 1.0000000000 0.7500000000 0.2090519868 0.3961538569  Biso 1.0 Al
Al3 1.0000000000 0.7500000000 0.7090519868 0.1038461431  Biso 1.0 Al
Al4 1.0000000000 0.2500000000 0.7909480132 0.6038461431  Biso 1.0 Al
Er5 1.0000000000 0.2500000000 0.8117049859 0.9284442623  Biso 1.0 Er
Er6 1.0000000000 0.7500000000 0.6882950141 0.4284442623  Biso 1.0 Er
Er7 1.0000000000 0.7500000000 0.1882950141 0.0715557377  Biso 1.0 Er
Er8 1.0000000000 0.2500000000 0.3117049859 0.5715557377  Biso 1.0 Er
Er9 1.0000000000 0.2500000000 0.9723977190 0.2892563153  Biso 1.0 Er
Er10 1.0000000000 0.7500000000 0.5276022810 0.7892563153  Biso 1.0 Er
Er11 1.0000000000 0.7500000000 0.0276022810 0.7107436847  Biso 1.0 Er
Er12 1.0000000000 0.2500000000 0.4723977190 0.2107436847  Biso 1.0 Er
