# AFLOW.org Repositories
# Al1F5K2   [TET,TET,tP8] (STD_PRIM doi:10
data_Al1F5K2
_pd_phase_name Al1F5K2
_cell_length_a  6.0539404165
_cell_length_b  6.0539404165
_cell_length_c  3.7613781334
_cell_angle_alpha  90.0000000000
_cell_angle_beta  90.0000000000
_cell_angle_gamma  90.0000000000
_symmetry_space_group_name_H-M  'P1'
_symmetry_Int_Tables_Number  1
loop_
_symmetry_equiv_pos_site_id
_symmetry_equiv_pos_as_xyz
  1  x,y,z
loop_
 _atom_site_label
 _atom_site_occupancy
 _atom_site_fract_x
 _atom_site_fract_y
 _atom_site_fract_z
 _atom_site_thermal_displace_type
 _atom_site_B_iso_or_equiv
 _atom_site_type_symbol
Al1 1.0000000000 0.0000000000 0.0000000000 0.0000000000  Biso 1.0 Al
F2 1.0000000000 0.0000000000 0.0000000000 0.5000000000  Biso 1.0 F
F3 1.0000000000 0.2117290375 0.2117290375 0.0000000000  Biso 1.0 F
F4 1.0000000000 0.7882709625 0.7882709625 0.0000000000  Biso 1.0 F
F5 1.0000000000 0.7882709625 0.2117290375 0.0000000000  Biso 1.0 F
F6 1.0000000000 0.2117290375 0.7882709625 0.0000000000  Biso 1.0 F
K7 1.0000000000 0.0000000000 0.5000000000 0.5000000000  Biso 1.0 K
K8 1.0000000000 0.5000000000 0.0000000000 0.5000000000  Biso 1.0 K
