# AFLOW.org Repositories
# Al1F4Na1   [ORCC,ORCC,oS24] (STD_PRIM do
data_Al1F4Na1
_pd_phase_name Al1F4Na1
_cell_length_a  7.8147804412
_cell_length_b  7.8147804412
_cell_length_c  5.3453138065
_cell_angle_alpha  90.0000000000
_cell_angle_beta  90.0000000000
_cell_angle_gamma  152.8362618335
_symmetry_space_group_name_H-M  'P1'
_symmetry_Int_Tables_Number  1
loop_
_symmetry_equiv_pos_site_id
_symmetry_equiv_pos_as_xyz
  1  x,y,z
loop_
 _atom_site_label
 _atom_site_occupancy
 _atom_site_fract_x
 _atom_site_fract_y
 _atom_site_fract_z
 _atom_site_thermal_displace_type
 _atom_site_B_iso_or_equiv
 _atom_site_type_symbol
Al1 1.0000000000 0.4155393167 0.5844606833 0.2500000000  Biso 1.0 Al
Al2 1.0000000000 0.5844606833 0.4155393167 0.7500000000  Biso 1.0 Al
F3 1.0000000000 0.3309227463 0.6690772537 0.0147756559  Biso 1.0 F
F4 1.0000000000 0.6690772537 0.3309227463 0.5147756559  Biso 1.0 F
F5 1.0000000000 0.3309227463 0.6690772537 0.4852243441  Biso 1.0 F
F6 1.0000000000 0.6690772537 0.3309227463 0.9852243441  Biso 1.0 F
F7 1.0000000000 0.9198853761 0.0801146239 0.2500000000  Biso 1.0 F
F8 1.0000000000 0.0801146239 0.9198853761 0.7500000000  Biso 1.0 F
F9 1.0000000000 0.5000000000 0.5000000000 0.0000000000  Biso 1.0 F
F10 1.0000000000 0.5000000000 0.5000000000 0.5000000000  Biso 1.0 F
Na11 1.0000000000 0.8053300615 0.1946699385 0.7500000000  Biso 1.0 Na
Na12 1.0000000000 0.1946699385 0.8053300615 0.2500000000  Biso 1.0 Na
