# AFLOW.org Repositories
# Al1Ge1Y1   [ORCC,ORCC,oS12] (STD_PRIM do
data_Al1Ge1Y1
_pd_phase_name Al1Ge1Y1
_cell_length_a  5.6127120656
_cell_length_b  5.6127120656
_cell_length_c  5.7812399000
_cell_angle_alpha  90.0000000000
_cell_angle_beta  90.0000000000
_cell_angle_gamma  137.5147412155
_symmetry_space_group_name_H-M  'P1'
_symmetry_Int_Tables_Number  1
loop_
_symmetry_equiv_pos_site_id
_symmetry_equiv_pos_as_xyz
  1  x,y,z
loop_
 _atom_site_label
 _atom_site_occupancy
 _atom_site_fract_x
 _atom_site_fract_y
 _atom_site_fract_z
 _atom_site_thermal_displace_type
 _atom_site_B_iso_or_equiv
 _atom_site_type_symbol
Al1 1.0000000000 0.0000000000 0.0000000000 0.0000000000  Biso 1.0 Al
Al2 1.0000000000 0.0000000000 0.0000000000 0.5000000000  Biso 1.0 Al
Ge3 1.0000000000 0.3943850453 0.6056149547 0.7500000000  Biso 1.0 Ge
Ge4 1.0000000000 0.6056149547 0.3943850453 0.2500000000  Biso 1.0 Ge
Y5 1.0000000000 0.6898908925 0.3101091075 0.7500000000  Biso 1.0 Y
Y6 1.0000000000 0.3101091075 0.6898908925 0.2500000000  Biso 1.0 Y
