# AFLOW.org Repositories
# Al1Ho2   [ORC,ORC,oP12] (STD_PRIM doi:10
data_Al1Ho2
_pd_phase_name Al1Ho2
_cell_length_a  5.0778608837
_cell_length_b  6.5298301930
_cell_length_c  9.4138252243
_cell_angle_alpha  90.0000000000
_cell_angle_beta  90.0000000000
_cell_angle_gamma  90.0000000000
_symmetry_space_group_name_H-M  'P1'
_symmetry_Int_Tables_Number  1
loop_
_symmetry_equiv_pos_site_id
_symmetry_equiv_pos_as_xyz
  1  x,y,z
loop_
 _atom_site_label
 _atom_site_occupancy
 _atom_site_fract_x
 _atom_site_fract_y
 _atom_site_fract_z
 _atom_site_thermal_displace_type
 _atom_site_B_iso_or_equiv
 _atom_site_type_symbol
Al1 1.0000000000 0.2500000000 0.2917083437 0.8970264897  Biso 1.0 Al
Al2 1.0000000000 0.7500000000 0.2082916563 0.3970264897  Biso 1.0 Al
Al3 1.0000000000 0.7500000000 0.7082916563 0.1029735103  Biso 1.0 Al
Al4 1.0000000000 0.2500000000 0.7917083437 0.6029735103  Biso 1.0 Al
Ho5 1.0000000000 0.2500000000 0.8118512451 0.9274871498  Biso 1.0 Ho
Ho6 1.0000000000 0.7500000000 0.6881487549 0.4274871498  Biso 1.0 Ho
Ho7 1.0000000000 0.7500000000 0.1881487549 0.0725128502  Biso 1.0 Ho
Ho8 1.0000000000 0.2500000000 0.3118512451 0.5725128502  Biso 1.0 Ho
Ho9 1.0000000000 0.2500000000 0.9728561239 0.2896124399  Biso 1.0 Ho
Ho10 1.0000000000 0.7500000000 0.5271438761 0.7896124399  Biso 1.0 Ho
Ho11 1.0000000000 0.7500000000 0.0271438761 0.7103875601  Biso 1.0 Ho
Ho12 1.0000000000 0.2500000000 0.4728561239 0.2103875601  Biso 1.0 Ho
