# AFLOW.org Repositories
# Al1Hf2   [BCT,BCT1,tI12] (STD_PRIM doi:1
data_Al1Hf2
_pd_phase_name Al1Hf2
_cell_length_a  5.4972805335
_cell_length_b  5.4972805335
_cell_length_c  5.4972805335
_cell_angle_alpha  103.1494094962
_cell_angle_beta  103.1494094962
_cell_angle_gamma  123.0258746440
_symmetry_space_group_name_H-M  'P1'
_symmetry_Int_Tables_Number  1
loop_
_symmetry_equiv_pos_site_id
_symmetry_equiv_pos_as_xyz
  1  x,y,z
loop_
 _atom_site_label
 _atom_site_occupancy
 _atom_site_fract_x
 _atom_site_fract_y
 _atom_site_fract_z
 _atom_site_thermal_displace_type
 _atom_site_B_iso_or_equiv
 _atom_site_type_symbol
Al1 1.0000000000 0.2500000000 0.2500000000 0.0000000000  Biso 1.0 Al
Al2 1.0000000000 0.7500000000 0.7500000000 0.0000000000  Biso 1.0 Al
Hf3 1.0000000000 0.6514976219 0.1514976219 0.8029952438  Biso 1.0 Hf
Hf4 1.0000000000 0.3485023781 0.8485023781 0.1970047562  Biso 1.0 Hf
Hf5 1.0000000000 0.1514976219 0.3485023781 0.5000000000  Biso 1.0 Hf
Hf6 1.0000000000 0.8485023781 0.6514976219 0.5000000000  Biso 1.0 Hf
