# AFLOW.org Repositories
# Al1K1Te2   [BCT,BCT1,tI16] (STD_PRIM doi
data_Al1K1Te2
_pd_phase_name Al1K1Te2
_cell_length_a  7.0996235815
_cell_length_b  7.0996235815
_cell_length_c  7.0996235815
_cell_angle_alpha  104.1062488778
_cell_angle_beta  104.1062488778
_cell_angle_gamma  120.8343958483
_symmetry_space_group_name_H-M  'P1'
_symmetry_Int_Tables_Number  1
loop_
_symmetry_equiv_pos_site_id
_symmetry_equiv_pos_as_xyz
  1  x,y,z
loop_
 _atom_site_label
 _atom_site_occupancy
 _atom_site_fract_x
 _atom_site_fract_y
 _atom_site_fract_z
 _atom_site_thermal_displace_type
 _atom_site_B_iso_or_equiv
 _atom_site_type_symbol
Al1 1.0000000000 0.7500000000 0.2500000000 0.5000000000  Biso 1.0 Al
Al2 1.0000000000 0.2500000000 0.7500000000 0.5000000000  Biso 1.0 Al
K3 1.0000000000 0.2500000000 0.2500000000 0.0000000000  Biso 1.0 K
K4 1.0000000000 0.7500000000 0.7500000000 0.0000000000  Biso 1.0 K
Te5 1.0000000000 0.3367665091 0.8367665091 0.1735330182  Biso 1.0 Te
Te6 1.0000000000 0.6632334909 0.1632334909 0.8264669818  Biso 1.0 Te
Te7 1.0000000000 0.8367665091 0.6632334909 0.5000000000  Biso 1.0 Te
Te8 1.0000000000 0.1632334909 0.3367665091 0.5000000000  Biso 1.0 Te
