# AFLOW.org Repositories
# Al1La1   [ORCC,ORCC,oS16] (STD_PRIM doi:
data_Al1La1
_pd_phase_name Al1La1
_cell_length_a  6.1620234435
_cell_length_b  6.1620234435
_cell_length_c  5.8351100484
_cell_angle_alpha  90.0000000000
_cell_angle_beta  90.0000000000
_cell_angle_gamma  101.6351032616
_symmetry_space_group_name_H-M  'P1'
_symmetry_Int_Tables_Number  1
loop_
_symmetry_equiv_pos_site_id
_symmetry_equiv_pos_as_xyz
  1  x,y,z
loop_
 _atom_site_label
 _atom_site_occupancy
 _atom_site_fract_x
 _atom_site_fract_y
 _atom_site_fract_z
 _atom_site_thermal_displace_type
 _atom_site_B_iso_or_equiv
 _atom_site_type_symbol
Al1 1.0000000000 0.0000000000 0.0000000000 0.0000000000  Biso 1.0 Al
Al2 1.0000000000 0.0000000000 0.0000000000 0.5000000000  Biso 1.0 Al
Al3 1.0000000000 0.3007808834 0.3007808834 0.7500000000  Biso 1.0 Al
Al4 1.0000000000 0.6992191166 0.6992191166 0.2500000000  Biso 1.0 Al
La5 1.0000000000 0.8405223543 0.4823869650 0.7500000000  Biso 1.0 La
La6 1.0000000000 0.1594776457 0.5176130350 0.2500000000  Biso 1.0 La
La7 1.0000000000 0.4823869650 0.8405223543 0.7500000000  Biso 1.0 La
La8 1.0000000000 0.5176130350 0.1594776457 0.2500000000  Biso 1.0 La
