# AFLOW.org Repositories
# Al1Li1O2   [TET,TET,tP16] (STD_PRIM doi:
data_Al1Li1O2
_pd_phase_name Al1Li1O2
_cell_length_a  5.2306802193
_cell_length_b  5.2306802193
_cell_length_c  6.3268556044
_cell_angle_alpha  90.0000000000
_cell_angle_beta  90.0000000000
_cell_angle_gamma  90.0000000000
_symmetry_space_group_name_H-M  'P1'
_symmetry_Int_Tables_Number  1
loop_
_symmetry_equiv_pos_site_id
_symmetry_equiv_pos_as_xyz
  1  x,y,z
loop_
 _atom_site_label
 _atom_site_occupancy
 _atom_site_fract_x
 _atom_site_fract_y
 _atom_site_fract_z
 _atom_site_thermal_displace_type
 _atom_site_B_iso_or_equiv
 _atom_site_type_symbol
Al1 1.0000000000 0.1767182574 0.1767182574 0.0000000000  Biso 1.0 Al
Al2 1.0000000000 0.8232817426 0.8232817426 0.5000000000  Biso 1.0 Al
Al3 1.0000000000 0.3232817426 0.6767182574 0.2500000000  Biso 1.0 Al
Al4 1.0000000000 0.6767182574 0.3232817426 0.7500000000  Biso 1.0 Al
Li5 1.0000000000 0.8134870178 0.8134870178 0.0000000000  Biso 1.0 Li
Li6 1.0000000000 0.1865129822 0.1865129822 0.5000000000  Biso 1.0 Li
Li7 1.0000000000 0.6865129822 0.3134870178 0.2500000000  Biso 1.0 Li
Li8 1.0000000000 0.3134870178 0.6865129822 0.7500000000  Biso 1.0 Li
O9 1.0000000000 0.2088701899 0.8380991580 0.0227247370  Biso 1.0 O
O10 1.0000000000 0.7911298101 0.1619008420 0.5227247370  Biso 1.0 O
O11 1.0000000000 0.6619008420 0.7088701899 0.2727247370  Biso 1.0 O
O12 1.0000000000 0.3380991580 0.2911298101 0.7727247370  Biso 1.0 O
O13 1.0000000000 0.2911298101 0.3380991580 0.2272752630  Biso 1.0 O
O14 1.0000000000 0.7088701899 0.6619008420 0.7272752630  Biso 1.0 O
O15 1.0000000000 0.8380991580 0.2088701899 0.9772752630  Biso 1.0 O
O16 1.0000000000 0.1619008420 0.7911298101 0.4772752630  Biso 1.0 O
