# AFLOW.org Repositories
# Al1Li5O4   [ORC,ORC,oP20] (STD_PRIM doi:
data_Al1Li5O4
_pd_phase_name Al1Li5O4
_cell_length_a  4.6705263156
_cell_length_b  6.3606577122
_cell_length_c  6.4866020119
_cell_angle_alpha  90.0000000000
_cell_angle_beta  90.0000000000
_cell_angle_gamma  90.0000000000
_symmetry_space_group_name_H-M  'P1'
_symmetry_Int_Tables_Number  1
loop_
_symmetry_equiv_pos_site_id
_symmetry_equiv_pos_as_xyz
  1  x,y,z
loop_
 _atom_site_label
 _atom_site_occupancy
 _atom_site_fract_x
 _atom_site_fract_y
 _atom_site_fract_z
 _atom_site_thermal_displace_type
 _atom_site_B_iso_or_equiv
 _atom_site_type_symbol
Al1 1.0000000000 0.2248995348 0.7500000000 0.2500000000  Biso 1.0 Al
Al2 1.0000000000 0.7751004652 0.2500000000 0.7500000000  Biso 1.0 Al
Li3 1.0000000000 0.2548873680 0.4886940034 0.5527360783  Biso 1.0 Li
Li4 1.0000000000 0.2548873680 0.0113059966 0.9472639217  Biso 1.0 Li
Li5 1.0000000000 0.7451126320 0.9886940034 0.4472639217  Biso 1.0 Li
Li6 1.0000000000 0.7451126320 0.5113059966 0.0527360783  Biso 1.0 Li
Li7 1.0000000000 0.7451126320 0.5113059966 0.4472639217  Biso 1.0 Li
Li8 1.0000000000 0.7451126320 0.9886940034 0.0527360783  Biso 1.0 Li
Li9 1.0000000000 0.2548873680 0.0113059966 0.5527360783  Biso 1.0 Li
Li10 1.0000000000 0.2548873680 0.4886940034 0.9472639217  Biso 1.0 Li
Li11 1.0000000000 0.2021135548 0.2500000000 0.2500000000  Biso 1.0 Li
Li12 1.0000000000 0.7978864452 0.7500000000 0.7500000000  Biso 1.0 Li
O13 1.0000000000 0.4288986875 0.9860719524 0.2500000000  Biso 1.0 O
O14 1.0000000000 0.4288986875 0.5139280476 0.2500000000  Biso 1.0 O
O15 1.0000000000 0.5711013125 0.4860719524 0.7500000000  Biso 1.0 O
O16 1.0000000000 0.5711013125 0.0139280476 0.7500000000  Biso 1.0 O
O17 1.0000000000 0.0165605507 0.7500000000 0.0182833097  Biso 1.0 O
O18 1.0000000000 0.0165605507 0.7500000000 0.4817166903  Biso 1.0 O
O19 1.0000000000 0.9834394493 0.2500000000 0.9817166903  Biso 1.0 O
O20 1.0000000000 0.9834394493 0.2500000000 0.5182833097  Biso 1.0 O
