# AFLOW.org Repositories
# Al1N1   [ORCC,ORCC,oS8] (STD_PRIM doi:10
data_Al1N1
_pd_phase_name Al1N1
_cell_length_a  3.3095669120
_cell_length_b  3.3095669120
_cell_length_c  4.1914306115
_cell_angle_alpha  90.0000000000
_cell_angle_beta  90.0000000000
_cell_angle_gamma  119.8132307807
_symmetry_space_group_name_H-M  'P1'
_symmetry_Int_Tables_Number  1
loop_
_symmetry_equiv_pos_site_id
_symmetry_equiv_pos_as_xyz
  1  x,y,z
loop_
 _atom_site_label
 _atom_site_occupancy
 _atom_site_fract_x
 _atom_site_fract_y
 _atom_site_fract_z
 _atom_site_thermal_displace_type
 _atom_site_B_iso_or_equiv
 _atom_site_type_symbol
Al1 1.0000000000 0.3335728996 0.6664271004 0.7500000000  Biso 1.0 Al
Al2 1.0000000000 0.6664271004 0.3335728996 0.2500000000  Biso 1.0 Al
N3 1.0000000000 0.6676810041 0.3323189959 0.7500000000  Biso 1.0 N
N4 1.0000000000 0.3323189959 0.6676810041 0.2500000000  Biso 1.0 N
