# AFLOW.org Repositories
# Al1N3Ta4   [HEX,HEX,hP16] (STD_PRIM doi:
data_Al1N3Ta4
_pd_phase_name Al1N3Ta4
_cell_length_a  3.0872644786
_cell_length_b  3.0872644786
_cell_length_c  24.6758984108
_cell_angle_alpha  90.0000000000
_cell_angle_beta  90.0000000000
_cell_angle_gamma  120.0000000000
_symmetry_space_group_name_H-M  'P1'
_symmetry_Int_Tables_Number  1
loop_
_symmetry_equiv_pos_site_id
_symmetry_equiv_pos_as_xyz
  1  x,y,z
loop_
 _atom_site_label
 _atom_site_occupancy
 _atom_site_fract_x
 _atom_site_fract_y
 _atom_site_fract_z
 _atom_site_thermal_displace_type
 _atom_site_B_iso_or_equiv
 _atom_site_type_symbol
Al1 1.0000000000 0.6666725674 0.3333451348 0.2500000000  Biso 1.0 Al
Al2 1.0000000000 0.3333274326 0.6666548652 0.7500000000  Biso 1.0 Al
N3 1.0000000000 0.0000000000 0.0000000000 0.0000000000  Biso 1.0 N
N4 1.0000000000 0.0000000000 0.0000000000 0.5000000000  Biso 1.0 N
N5 1.0000000000 0.3333371488 0.6666742977 0.1054382420  Biso 1.0 N
N6 1.0000000000 0.6666628512 0.3333257023 0.6054382420  Biso 1.0 N
N7 1.0000000000 0.6666628512 0.3333257023 0.8945617580  Biso 1.0 N
N8 1.0000000000 0.3333371488 0.6666742977 0.3945617580  Biso 1.0 N
Ta9 1.0000000000 0.6666662810 0.3333325620 0.0506599789  Biso 1.0 Ta
Ta10 1.0000000000 0.3333337190 0.6666674380 0.5506599789  Biso 1.0 Ta
Ta11 1.0000000000 0.3333337190 0.6666674380 0.9493400211  Biso 1.0 Ta
Ta12 1.0000000000 0.6666662810 0.3333325620 0.4493400211  Biso 1.0 Ta
Ta13 1.0000000000 0.0000000000 0.0000000000 0.1596507308  Biso 1.0 Ta
Ta14 1.0000000000 0.0000000000 0.0000000000 0.6596507308  Biso 1.0 Ta
Ta15 1.0000000000 0.0000000000 0.0000000000 0.8403492692  Biso 1.0 Ta
Ta16 1.0000000000 0.0000000000 0.0000000000 0.3403492692  Biso 1.0 Ta
