# AFLOW.org Repositories
# Al1O3Y1   [ORC,ORC,oP20] (STD_PRIM doi:1
data_Al1O3Y1
_pd_phase_name Al1O3Y1
_cell_length_a  5.2264839082
_cell_length_b  5.3827381076
_cell_length_c  7.4483752781
_cell_angle_alpha  90.0000000000
_cell_angle_beta  90.0000000000
_cell_angle_gamma  90.0000000000
_symmetry_space_group_name_H-M  'P1'
_symmetry_Int_Tables_Number  1
loop_
_symmetry_equiv_pos_site_id
_symmetry_equiv_pos_as_xyz
  1  x,y,z
loop_
 _atom_site_label
 _atom_site_occupancy
 _atom_site_fract_x
 _atom_site_fract_y
 _atom_site_fract_z
 _atom_site_thermal_displace_type
 _atom_site_B_iso_or_equiv
 _atom_site_type_symbol
Al1 1.0000000000 0.0000000000 0.0000000000 0.0000000000  Biso 1.0 Al
Al2 1.0000000000 0.5000000000 0.5000000000 0.0000000000  Biso 1.0 Al
Al3 1.0000000000 0.0000000000 0.0000000000 0.5000000000  Biso 1.0 Al
Al4 1.0000000000 0.5000000000 0.5000000000 0.5000000000  Biso 1.0 Al
O5 1.0000000000 0.4138834241 0.4768132154 0.7500000000  Biso 1.0 O
O6 1.0000000000 0.9138834241 0.0231867846 0.2500000000  Biso 1.0 O
O7 1.0000000000 0.5861165759 0.5231867846 0.2500000000  Biso 1.0 O
O8 1.0000000000 0.0861165759 0.9768132154 0.7500000000  Biso 1.0 O
O9 1.0000000000 0.7938345446 0.2936884793 0.9546568104  Biso 1.0 O
O10 1.0000000000 0.2938345446 0.2063115207 0.0453431896  Biso 1.0 O
O11 1.0000000000 0.2061654554 0.7063115207 0.4546568104  Biso 1.0 O
O12 1.0000000000 0.7061654554 0.7936884793 0.5453431896  Biso 1.0 O
O13 1.0000000000 0.2061654554 0.7063115207 0.0453431896  Biso 1.0 O
O14 1.0000000000 0.7061654554 0.7936884793 0.9546568104  Biso 1.0 O
O15 1.0000000000 0.7938345446 0.2936884793 0.5453431896  Biso 1.0 O
O16 1.0000000000 0.2938345446 0.2063115207 0.4546568104  Biso 1.0 O
Y17 1.0000000000 0.5127623873 0.0538812908 0.7500000000  Biso 1.0 Y
Y18 1.0000000000 0.0127623873 0.4461187092 0.2500000000  Biso 1.0 Y
Y19 1.0000000000 0.4872376127 0.9461187092 0.2500000000  Biso 1.0 Y
Y20 1.0000000000 0.9872376127 0.5538812908 0.7500000000  Biso 1.0 Y
