# AFLOW.org Repositories
# Al1Pt3   [TET,TET,tP16] (STD_PRIM doi:10
data_Al1Pt3
_pd_phase_name Al1Pt3
_cell_length_a  5.4816083971
_cell_length_b  5.4816083971
_cell_length_c  7.8724847647
_cell_angle_alpha  90.0000000000
_cell_angle_beta  90.0000000000
_cell_angle_gamma  90.0000000000
_symmetry_space_group_name_H-M  'P1'
_symmetry_Int_Tables_Number  1
loop_
_symmetry_equiv_pos_site_id
_symmetry_equiv_pos_as_xyz
  1  x,y,z
loop_
 _atom_site_label
 _atom_site_occupancy
 _atom_site_fract_x
 _atom_site_fract_y
 _atom_site_fract_z
 _atom_site_thermal_displace_type
 _atom_site_B_iso_or_equiv
 _atom_site_type_symbol
Al1 1.0000000000 0.5000000000 0.0000000000 0.2401169260  Biso 1.0 Al
Al2 1.0000000000 0.0000000000 0.5000000000 0.2401169260  Biso 1.0 Al
Al3 1.0000000000 0.0000000000 0.5000000000 0.7598830740  Biso 1.0 Al
Al4 1.0000000000 0.5000000000 0.0000000000 0.7598830740  Biso 1.0 Al
Pt5 1.0000000000 0.2268961771 0.7268961771 0.0000000000  Biso 1.0 Pt
Pt6 1.0000000000 0.7731038229 0.2731038229 0.0000000000  Biso 1.0 Pt
Pt7 1.0000000000 0.2731038229 0.2268961771 0.0000000000  Biso 1.0 Pt
Pt8 1.0000000000 0.7268961771 0.7731038229 0.0000000000  Biso 1.0 Pt
Pt9 1.0000000000 0.0000000000 0.0000000000 0.2528918357  Biso 1.0 Pt
Pt10 1.0000000000 0.5000000000 0.5000000000 0.7471081643  Biso 1.0 Pt
Pt11 1.0000000000 0.0000000000 0.0000000000 0.7471081643  Biso 1.0 Pt
Pt12 1.0000000000 0.5000000000 0.5000000000 0.2528918357  Biso 1.0 Pt
Pt13 1.0000000000 0.3068719648 0.8068719648 0.5000000000  Biso 1.0 Pt
Pt14 1.0000000000 0.6931280352 0.1931280352 0.5000000000  Biso 1.0 Pt
Pt15 1.0000000000 0.1931280352 0.3068719648 0.5000000000  Biso 1.0 Pt
Pt16 1.0000000000 0.8068719648 0.6931280352 0.5000000000  Biso 1.0 Pt
