# AFLOW.org Repositories
# Al1Pd1Y1   [HEX,HEX,hP9] (STD_PRIM doi:1
data_Al1Pd1Y1
_pd_phase_name Al1Pd1Y1
_cell_length_a  7.2446062326
_cell_length_b  7.2446062326
_cell_length_c  3.9680787815
_cell_angle_alpha  90.0000000000
_cell_angle_beta  90.0000000000
_cell_angle_gamma  120.0000000000
_symmetry_space_group_name_H-M  'P1'
_symmetry_Int_Tables_Number  1
loop_
_symmetry_equiv_pos_site_id
_symmetry_equiv_pos_as_xyz
  1  x,y,z
loop_
 _atom_site_label
 _atom_site_occupancy
 _atom_site_fract_x
 _atom_site_fract_y
 _atom_site_fract_z
 _atom_site_thermal_displace_type
 _atom_site_B_iso_or_equiv
 _atom_site_type_symbol
Al1 1.0000000000 0.7610102323 0.7610102323 0.0000000000  Biso 1.0 Al
Al2 1.0000000000 0.2389967160 0.0000000000 0.0000000000  Biso 1.0 Al
Al3 1.0000000000 0.0000000000 0.2389989682 0.0000000000  Biso 1.0 Al
Pd4 1.0000000000 0.0000000000 0.0000000000 0.5000000000  Biso 1.0 Pd
Pd5 1.0000000000 0.3333516457 0.6666759399 0.0000000000  Biso 1.0 Pd
Pd6 1.0000000000 0.6666483543 0.3333242943 0.0000000000  Biso 1.0 Pd
Y7 1.0000000000 0.4140405006 0.4140405006 0.5000000000  Biso 1.0 Y
Y8 1.0000000000 0.5859564074 0.0000000000 0.5000000000  Biso 1.0 Y
Y9 1.0000000000 0.0000000000 0.5859524996 0.5000000000  Biso 1.0 Y
