# AFLOW.org Repositories
# Al1Pt1Zr1   [HEX,HEX,hP18] (STD_PRIM doi
data_Al1Pt1Zr1
_pd_phase_name Al1Pt1Zr1
_cell_length_a  7.1476153978
_cell_length_b  7.1476153978
_cell_length_c  7.2501621094
_cell_angle_alpha  90.0000000000
_cell_angle_beta  90.0000000000
_cell_angle_gamma  120.0000000000
_symmetry_space_group_name_H-M  'P1'
_symmetry_Int_Tables_Number  1
loop_
_symmetry_equiv_pos_site_id
_symmetry_equiv_pos_as_xyz
  1  x,y,z
loop_
 _atom_site_label
 _atom_site_occupancy
 _atom_site_fract_x
 _atom_site_fract_y
 _atom_site_fract_z
 _atom_site_thermal_displace_type
 _atom_site_B_iso_or_equiv
 _atom_site_type_symbol
Al1 1.0000000000 0.0000000000 0.7428975086 0.0000000000  Biso 1.0 Al
Al2 1.0000000000 0.2571024914 0.2571024914 0.0000000000  Biso 1.0 Al
Al3 1.0000000000 0.7428920591 0.0000000000 0.0000000000  Biso 1.0 Al
Al4 1.0000000000 0.0000000000 0.7428975086 0.4999986434  Biso 1.0 Al
Al5 1.0000000000 0.2571024914 0.2571024914 0.5000013566  Biso 1.0 Al
Al6 1.0000000000 0.7428920591 0.0000000000 0.5000000000  Biso 1.0 Al
Pt7 1.0000000000 0.6666725053 0.3333439041 0.0238998412  Biso 1.0 Pt
Pt8 1.0000000000 0.6666725053 0.3333439041 0.4761001588  Biso 1.0 Pt
Pt9 1.0000000000 0.3333286012 0.6666560959 0.9761001588  Biso 1.0 Pt
Pt10 1.0000000000 0.3333286012 0.6666560959 0.5238998412  Biso 1.0 Pt
Pt11 1.0000000000 0.0000000000 0.0000000000 0.2500000000  Biso 1.0 Pt
Pt12 1.0000000000 0.0000000000 0.0000000000 0.7500000000  Biso 1.0 Pt
Zr13 1.0000000000 0.3950525036 0.9824693892 0.2500000000  Biso 1.0 Zr
Zr14 1.0000000000 0.0175380412 0.4125859775 0.2500000000  Biso 1.0 Zr
Zr15 1.0000000000 0.5874155040 0.6049524250 0.2500000000  Biso 1.0 Zr
Zr16 1.0000000000 0.4125831144 0.0175306108 0.7500000000  Biso 1.0 Zr
Zr17 1.0000000000 0.6049520637 0.5874140225 0.7500000000  Biso 1.0 Zr
Zr18 1.0000000000 0.9824630790 0.3950475750 0.7500000000  Biso 1.0 Zr
