# AFLOW.org Repositories
# Al1Pt2   [ORC,ORC,oP12] (STD_PRIM doi:10
data_Al1Pt2
_pd_phase_name Al1Pt2
_cell_length_a  4.0768976498
_cell_length_b  5.4436854756
_cell_length_c  7.9044595449
_cell_angle_alpha  90.0000000000
_cell_angle_beta  90.0000000000
_cell_angle_gamma  90.0000000000
_symmetry_space_group_name_H-M  'P1'
_symmetry_Int_Tables_Number  1
loop_
_symmetry_equiv_pos_site_id
_symmetry_equiv_pos_as_xyz
  1  x,y,z
loop_
 _atom_site_label
 _atom_site_occupancy
 _atom_site_fract_x
 _atom_site_fract_y
 _atom_site_fract_z
 _atom_site_thermal_displace_type
 _atom_site_B_iso_or_equiv
 _atom_site_type_symbol
Al1 1.0000000000 0.2500000000 0.6955918442 0.3954943589  Biso 1.0 Al
Al2 1.0000000000 0.7500000000 0.8044081558 0.8954943589  Biso 1.0 Al
Al3 1.0000000000 0.7500000000 0.3044081558 0.6045056411  Biso 1.0 Al
Al4 1.0000000000 0.2500000000 0.1955918442 0.1045056411  Biso 1.0 Al
Pt5 1.0000000000 0.2500000000 0.0413449443 0.7918827048  Biso 1.0 Pt
Pt6 1.0000000000 0.7500000000 0.4586550557 0.2918827048  Biso 1.0 Pt
Pt7 1.0000000000 0.7500000000 0.9586550557 0.2081172952  Biso 1.0 Pt
Pt8 1.0000000000 0.2500000000 0.5413449443 0.7081172952  Biso 1.0 Pt
Pt9 1.0000000000 0.2500000000 0.1628725857 0.4317268149  Biso 1.0 Pt
Pt10 1.0000000000 0.7500000000 0.3371274143 0.9317268149  Biso 1.0 Pt
Pt11 1.0000000000 0.7500000000 0.8371274143 0.5682731851  Biso 1.0 Pt
Pt12 1.0000000000 0.2500000000 0.6628725857 0.0682731851  Biso 1.0 Pt
