# AFLOW.org Repositories
# Al1Pd1Tb1   [ORC,ORC,oP12] (STD_PRIM doi
data_Al1Pd1Tb1
_pd_phase_name Al1Pd1Tb1
_cell_length_a  4.4586594653
_cell_length_b  6.9387386600
_cell_length_c  7.7822257704
_cell_angle_alpha  90.0000000000
_cell_angle_beta  90.0000000000
_cell_angle_gamma  90.0000000000
_symmetry_space_group_name_H-M  'P1'
_symmetry_Int_Tables_Number  1
loop_
_symmetry_equiv_pos_site_id
_symmetry_equiv_pos_as_xyz
  1  x,y,z
loop_
 _atom_site_label
 _atom_site_occupancy
 _atom_site_fract_x
 _atom_site_fract_y
 _atom_site_fract_z
 _atom_site_thermal_displace_type
 _atom_site_B_iso_or_equiv
 _atom_site_type_symbol
Al1 1.0000000000 0.2500000000 0.1445188871 0.0635792730  Biso 1.0 Al
Al2 1.0000000000 0.7500000000 0.3554811129 0.5635792730  Biso 1.0 Al
Al3 1.0000000000 0.7500000000 0.8554811129 0.9364207270  Biso 1.0 Al
Al4 1.0000000000 0.2500000000 0.6445188871 0.4364207270  Biso 1.0 Al
Pd5 1.0000000000 0.2500000000 0.2738886522 0.3831571096  Biso 1.0 Pd
Pd6 1.0000000000 0.7500000000 0.2261113478 0.8831571096  Biso 1.0 Pd
Pd7 1.0000000000 0.7500000000 0.7261113478 0.6168428904  Biso 1.0 Pd
Pd8 1.0000000000 0.2500000000 0.7738886522 0.1168428904  Biso 1.0 Pd
Tb9 1.0000000000 0.2500000000 0.0324823343 0.6798197919  Biso 1.0 Tb
Tb10 1.0000000000 0.7500000000 0.4675176657 0.1798197919  Biso 1.0 Tb
Tb11 1.0000000000 0.7500000000 0.9675176657 0.3201802081  Biso 1.0 Tb
Tb12 1.0000000000 0.2500000000 0.5324823343 0.8201802081  Biso 1.0 Tb
