# AFLOW.org Repositories
# Al1Pt1   [CUB,CUB,cP8] (STD_PRIM doi:10.
data_Al1Pt1
_pd_phase_name Al1Pt1
_cell_length_a  4.8847528667
_cell_length_b  4.8847528667
_cell_length_c  4.8847528667
_cell_angle_alpha  90.0000000000
_cell_angle_beta  90.0000000000
_cell_angle_gamma  90.0000000000
_symmetry_space_group_name_H-M  'P1'
_symmetry_Int_Tables_Number  1
loop_
_symmetry_equiv_pos_site_id
_symmetry_equiv_pos_as_xyz
  1  x,y,z
loop_
 _atom_site_label
 _atom_site_occupancy
 _atom_site_fract_x
 _atom_site_fract_y
 _atom_site_fract_z
 _atom_site_thermal_displace_type
 _atom_site_B_iso_or_equiv
 _atom_site_type_symbol
Al1 1.0000000000 0.1565849611 0.1565849611 0.8434150389  Biso 1.0 Al
Al2 1.0000000000 0.3434150389 0.8434150389 0.3434150389  Biso 1.0 Al
Al3 1.0000000000 0.8434150389 0.6565849611 0.6565849611  Biso 1.0 Al
Al4 1.0000000000 0.6565849611 0.3434150389 0.1565849611  Biso 1.0 Al
Pt5 1.0000000000 0.8447776408 0.8447776408 0.1552223592  Biso 1.0 Pt
Pt6 1.0000000000 0.6552223592 0.1552223592 0.6552223592  Biso 1.0 Pt
Pt7 1.0000000000 0.1552223592 0.3447776408 0.3447776408  Biso 1.0 Pt
Pt8 1.0000000000 0.3447776408 0.6552223592 0.8447776408  Biso 1.0 Pt
