# AFLOW.org Repositories
# Al1Re2   [BCT,BCT2,tI6] (STD_PRIM doi:10
data_Al1Re2
_pd_phase_name Al1Re2
_cell_length_a  5.2626081217
_cell_length_b  5.2626081217
_cell_length_c  5.2626081217
_cell_angle_alpha  146.7583753562
_cell_angle_beta  146.7583753562
_cell_angle_gamma  47.7216806291
_symmetry_space_group_name_H-M  'P1'
_symmetry_Int_Tables_Number  1
loop_
_symmetry_equiv_pos_site_id
_symmetry_equiv_pos_as_xyz
  1  x,y,z
loop_
 _atom_site_label
 _atom_site_occupancy
 _atom_site_fract_x
 _atom_site_fract_y
 _atom_site_fract_z
 _atom_site_thermal_displace_type
 _atom_site_B_iso_or_equiv
 _atom_site_type_symbol
Al1 1.0000000000 0.0000000000 0.0000000000 0.0000000000  Biso 1.0 Al
Re2 1.0000000000 0.3313950549 0.3313950549 0.0000000000  Biso 1.0 Re
Re3 1.0000000000 0.6686049451 0.6686049451 0.0000000000  Biso 1.0 Re
