# AFLOW.org Repositories
# Al1Tb2   [ORC,ORC,oP12] (STD_PRIM doi:10
data_Al1Tb2
_pd_phase_name Al1Tb2
_cell_length_a  5.1195084876
_cell_length_b  6.5781681604
_cell_length_c  9.5198546163
_cell_angle_alpha  90.0000000000
_cell_angle_beta  90.0000000000
_cell_angle_gamma  90.0000000000
_symmetry_space_group_name_H-M  'P1'
_symmetry_Int_Tables_Number  1
loop_
_symmetry_equiv_pos_site_id
_symmetry_equiv_pos_as_xyz
  1  x,y,z
loop_
 _atom_site_label
 _atom_site_occupancy
 _atom_site_fract_x
 _atom_site_fract_y
 _atom_site_fract_z
 _atom_site_thermal_displace_type
 _atom_site_B_iso_or_equiv
 _atom_site_type_symbol
Al1 1.0000000000 0.2500000000 0.2914746570 0.8971939453  Biso 1.0 Al
Al2 1.0000000000 0.7500000000 0.2085253430 0.3971939453  Biso 1.0 Al
Al3 1.0000000000 0.7500000000 0.7085253430 0.1028060547  Biso 1.0 Al
Al4 1.0000000000 0.2500000000 0.7914746570 0.6028060547  Biso 1.0 Al
Tb5 1.0000000000 0.2500000000 0.8112191885 0.9266462351  Biso 1.0 Tb
Tb6 1.0000000000 0.7500000000 0.6887808115 0.4266462351  Biso 1.0 Tb
Tb7 1.0000000000 0.7500000000 0.1887808115 0.0733537649  Biso 1.0 Tb
Tb8 1.0000000000 0.2500000000 0.3112191885 0.5733537649  Biso 1.0 Tb
Tb9 1.0000000000 0.2500000000 0.9729613314 0.2910228285  Biso 1.0 Tb
Tb10 1.0000000000 0.7500000000 0.5270386686 0.7910228285  Biso 1.0 Tb
Tb11 1.0000000000 0.7500000000 0.0270386686 0.7089771715  Biso 1.0 Tb
Tb12 1.0000000000 0.2500000000 0.4729613314 0.2089771715  Biso 1.0 Tb
