# AFLOW.org Repositories
# Al1Ti3   [HEX,HEX,hP8] (STD_PRIM doi:10.
data_Al1Ti3
_pd_phase_name Al1Ti3
_cell_length_a  5.8715993095
_cell_length_b  5.8715993095
_cell_length_c  4.7259603264
_cell_angle_alpha  90.0000000000
_cell_angle_beta  90.0000000000
_cell_angle_gamma  120.0000000000
_symmetry_space_group_name_H-M  'P1'
_symmetry_Int_Tables_Number  1
loop_
_symmetry_equiv_pos_site_id
_symmetry_equiv_pos_as_xyz
  1  x,y,z
loop_
 _atom_site_label
 _atom_site_occupancy
 _atom_site_fract_x
 _atom_site_fract_y
 _atom_site_fract_z
 _atom_site_thermal_displace_type
 _atom_site_B_iso_or_equiv
 _atom_site_type_symbol
Al1 1.0000000000 0.3333539491 0.6666769745 0.2500000000  Biso 1.0 Al
Al2 1.0000000000 0.6666460509 0.3333230255 0.7500000000  Biso 1.0 Al
Ti3 1.0000000000 0.8305823244 0.1694398933 0.2500000000  Biso 1.0 Ti
Ti4 1.0000000000 0.8305823244 0.6611424311 0.2500000000  Biso 1.0 Ti
Ti5 1.0000000000 0.3388432084 0.1694216042 0.2500000000  Biso 1.0 Ti
Ti6 1.0000000000 0.1694176756 0.8305601067 0.7500000000  Biso 1.0 Ti
Ti7 1.0000000000 0.1694176756 0.3388575689 0.7500000000  Biso 1.0 Ti
Ti8 1.0000000000 0.6611567916 0.8305783958 0.7500000000  Biso 1.0 Ti
