# AFLOW.org Repositories
# Al1Tb1   [ORC,ORC,oP16] (STD_PRIM doi:10
data_Al1Tb1
_pd_phase_name Al1Tb1
_cell_length_a  5.6406713397
_cell_length_b  5.8604757794
_cell_length_c  11.4622529561
_cell_angle_alpha  90.0000000000
_cell_angle_beta  90.0000000000
_cell_angle_gamma  90.0000000000
_symmetry_space_group_name_H-M  'P1'
_symmetry_Int_Tables_Number  1
loop_
_symmetry_equiv_pos_site_id
_symmetry_equiv_pos_as_xyz
  1  x,y,z
loop_
 _atom_site_label
 _atom_site_occupancy
 _atom_site_fract_x
 _atom_site_fract_y
 _atom_site_fract_z
 _atom_site_thermal_displace_type
 _atom_site_B_iso_or_equiv
 _atom_site_type_symbol
Al1 1.0000000000 0.0000000000 0.9322604919 0.7500000000  Biso 1.0 Al
Al2 1.0000000000 0.5000000000 0.0677395081 0.2500000000  Biso 1.0 Al
Al3 1.0000000000 0.0000000000 0.0677395081 0.2500000000  Biso 1.0 Al
Al4 1.0000000000 0.5000000000 0.9322604919 0.7500000000  Biso 1.0 Al
Al5 1.0000000000 0.7500000000 0.6626672536 0.9007540752  Biso 1.0 Al
Al6 1.0000000000 0.2500000000 0.3373327464 0.0992459248  Biso 1.0 Al
Al7 1.0000000000 0.7500000000 0.3373327464 0.4007540752  Biso 1.0 Al
Al8 1.0000000000 0.2500000000 0.6626672536 0.5992459248  Biso 1.0 Al
Tb9 1.0000000000 0.7500000000 0.1624973352 0.9853317123  Biso 1.0 Tb
Tb10 1.0000000000 0.2500000000 0.8375026648 0.0146682877  Biso 1.0 Tb
Tb11 1.0000000000 0.7500000000 0.8375026648 0.4853317123  Biso 1.0 Tb
Tb12 1.0000000000 0.2500000000 0.1624973352 0.5146682877  Biso 1.0 Tb
Tb13 1.0000000000 0.7500000000 0.4013535527 0.6673739203  Biso 1.0 Tb
Tb14 1.0000000000 0.2500000000 0.5986464473 0.3326260797  Biso 1.0 Tb
Tb15 1.0000000000 0.7500000000 0.5986464473 0.1673739203  Biso 1.0 Tb
Tb16 1.0000000000 0.2500000000 0.4013535527 0.8326260797  Biso 1.0 Tb
