# AFLOW.org Repositories
# Al1Zr2   [BCT,BCT1,tI12] (STD_PRIM doi:1
data_Al1Zr2
_pd_phase_name Al1Zr2
_cell_length_a  5.5441799324
_cell_length_b  5.5441799324
_cell_length_c  5.5441799324
_cell_angle_alpha  103.7511153341
_cell_angle_beta  103.7511153341
_cell_angle_gamma  121.6406731851
_symmetry_space_group_name_H-M  'P1'
_symmetry_Int_Tables_Number  1
loop_
_symmetry_equiv_pos_site_id
_symmetry_equiv_pos_as_xyz
  1  x,y,z
loop_
 _atom_site_label
 _atom_site_occupancy
 _atom_site_fract_x
 _atom_site_fract_y
 _atom_site_fract_z
 _atom_site_thermal_displace_type
 _atom_site_B_iso_or_equiv
 _atom_site_type_symbol
Al1 1.0000000000 0.7500000000 0.7500000000 0.0000000000  Biso 1.0 Al
Al2 1.0000000000 0.2500000000 0.2500000000 0.0000000000  Biso 1.0 Al
Zr3 1.0000000000 0.1519432049 0.6519432049 0.8038864099  Biso 1.0 Zr
Zr4 1.0000000000 0.8480567951 0.3480567951 0.1961135901  Biso 1.0 Zr
Zr5 1.0000000000 0.3480567951 0.1519432049 0.5000000000  Biso 1.0 Zr
Zr6 1.0000000000 0.6519432049 0.8480567951 0.5000000000  Biso 1.0 Zr
