# AFLOW.org Repositories
# Al2Ba1Si2   [ORC,ORC,oP20] (STD_PRIM doi
data_Al2Ba1Si2
_pd_phase_name Al2Ba1Si2
_cell_length_a  4.2665983304
_cell_length_b  10.1326893653
_cell_length_c  10.9393670137
_cell_angle_alpha  90.0000000000
_cell_angle_beta  90.0000000000
_cell_angle_gamma  90.0000000000
_symmetry_space_group_name_H-M  'P1'
_symmetry_Int_Tables_Number  1
loop_
_symmetry_equiv_pos_site_id
_symmetry_equiv_pos_as_xyz
  1  x,y,z
loop_
 _atom_site_label
 _atom_site_occupancy
 _atom_site_fract_x
 _atom_site_fract_y
 _atom_site_fract_z
 _atom_site_thermal_displace_type
 _atom_site_B_iso_or_equiv
 _atom_site_type_symbol
Al1 1.0000000000 0.2500000000 0.5417385740 0.6189878453  Biso 1.0 Al
Al2 1.0000000000 0.7500000000 0.9582614260 0.1189878453  Biso 1.0 Al
Al3 1.0000000000 0.7500000000 0.4582614260 0.3810121547  Biso 1.0 Al
Al4 1.0000000000 0.2500000000 0.0417385740 0.8810121547  Biso 1.0 Al
Al5 1.0000000000 0.2500000000 0.1007405280 0.4525859934  Biso 1.0 Al
Al6 1.0000000000 0.7500000000 0.3992594720 0.9525859934  Biso 1.0 Al
Al7 1.0000000000 0.7500000000 0.8992594720 0.5474140066  Biso 1.0 Al
Al8 1.0000000000 0.2500000000 0.6007405280 0.0474140066  Biso 1.0 Al
Ba9 1.0000000000 0.2500000000 0.7476511670 0.3254420545  Biso 1.0 Ba
Ba10 1.0000000000 0.7500000000 0.7523488330 0.8254420545  Biso 1.0 Ba
Ba11 1.0000000000 0.7500000000 0.2523488330 0.6745579455  Biso 1.0 Ba
Ba12 1.0000000000 0.2500000000 0.2476511670 0.1745579455  Biso 1.0 Ba
Si13 1.0000000000 0.2500000000 0.3547770666 0.4586359939  Biso 1.0 Si
Si14 1.0000000000 0.7500000000 0.1452229334 0.9586359939  Biso 1.0 Si
Si15 1.0000000000 0.7500000000 0.6452229334 0.5413640061  Biso 1.0 Si
Si16 1.0000000000 0.2500000000 0.8547770666 0.0413640061  Biso 1.0 Si
Si17 1.0000000000 0.2500000000 0.9758389643 0.6558698951  Biso 1.0 Si
Si18 1.0000000000 0.7500000000 0.5241610357 0.1558698951  Biso 1.0 Si
Si19 1.0000000000 0.7500000000 0.0241610357 0.3441301049  Biso 1.0 Si
Si20 1.0000000000 0.2500000000 0.4758389643 0.8441301049  Biso 1.0 Si
