# AFLOW.org Repositories
# Al2B2Ru3   [ORCC,ORCC,oS14] (STD_PRIM do
data_Al2B2Ru3
_pd_phase_name Al2B2Ru3
_cell_length_a  8.9590928284
_cell_length_b  8.9590928284
_cell_length_c  2.9328345855
_cell_angle_alpha  90.0000000000
_cell_angle_beta  90.0000000000
_cell_angle_gamma  160.4389631575
_symmetry_space_group_name_H-M  'P1'
_symmetry_Int_Tables_Number  1
loop_
_symmetry_equiv_pos_site_id
_symmetry_equiv_pos_as_xyz
  1  x,y,z
loop_
 _atom_site_label
 _atom_site_occupancy
 _atom_site_fract_x
 _atom_site_fract_y
 _atom_site_fract_z
 _atom_site_thermal_displace_type
 _atom_site_B_iso_or_equiv
 _atom_site_type_symbol
Al1 1.0000000000 0.5793738472 0.4206261528 0.5000000000  Biso 1.0 Al
Al2 1.0000000000 0.4206261528 0.5793738472 0.5000000000  Biso 1.0 Al
B3 1.0000000000 0.7219807582 0.2780192418 0.5000000000  Biso 1.0 B
B4 1.0000000000 0.2780192418 0.7219807582 0.5000000000  Biso 1.0 B
Ru5 1.0000000000 0.0000000000 0.0000000000 0.0000000000  Biso 1.0 Ru
Ru6 1.0000000000 0.8248095435 0.1751904565 0.0000000000  Biso 1.0 Ru
Ru7 1.0000000000 0.1751904565 0.8248095435 0.0000000000  Biso 1.0 Ru
