# AFLOW.org Repositories
# Al2Ba1Ge2   [ORC,ORC,oP20] (STD_PRIM doi
data_Al2Ba1Ge2
_pd_phase_name Al2Ba1Ge2
_cell_length_a  4.3184252409
_cell_length_b  10.2620590343
_cell_length_c  11.0667433732
_cell_angle_alpha  90.0000000000
_cell_angle_beta  90.0000000000
_cell_angle_gamma  90.0000000000
_symmetry_space_group_name_H-M  'P1'
_symmetry_Int_Tables_Number  1
loop_
_symmetry_equiv_pos_site_id
_symmetry_equiv_pos_as_xyz
  1  x,y,z
loop_
 _atom_site_label
 _atom_site_occupancy
 _atom_site_fract_x
 _atom_site_fract_y
 _atom_site_fract_z
 _atom_site_thermal_displace_type
 _atom_site_B_iso_or_equiv
 _atom_site_type_symbol
Al1 1.0000000000 0.2500000000 0.0427723057 0.8814884598  Biso 1.0 Al
Al2 1.0000000000 0.7500000000 0.4572276943 0.3814884598  Biso 1.0 Al
Al3 1.0000000000 0.7500000000 0.9572276943 0.1185115402  Biso 1.0 Al
Al4 1.0000000000 0.2500000000 0.5427723057 0.6185115402  Biso 1.0 Al
Al5 1.0000000000 0.2500000000 0.1003786535 0.4530387442  Biso 1.0 Al
Al6 1.0000000000 0.7500000000 0.3996213465 0.9530387442  Biso 1.0 Al
Al7 1.0000000000 0.7500000000 0.8996213465 0.5469612558  Biso 1.0 Al
Al8 1.0000000000 0.2500000000 0.6003786535 0.0469612558  Biso 1.0 Al
Ba9 1.0000000000 0.2500000000 0.2480592723 0.1750296156  Biso 1.0 Ba
Ba10 1.0000000000 0.7500000000 0.2519407277 0.6750296156  Biso 1.0 Ba
Ba11 1.0000000000 0.7500000000 0.7519407277 0.8249703844  Biso 1.0 Ba
Ba12 1.0000000000 0.2500000000 0.7480592723 0.3249703844  Biso 1.0 Ba
Ge13 1.0000000000 0.2500000000 0.4750595871 0.8431575049  Biso 1.0 Ge
Ge14 1.0000000000 0.7500000000 0.0249404129 0.3431575049  Biso 1.0 Ge
Ge15 1.0000000000 0.7500000000 0.5249404129 0.1568424951  Biso 1.0 Ge
Ge16 1.0000000000 0.2500000000 0.9750595871 0.6568424951  Biso 1.0 Ge
Ge17 1.0000000000 0.2500000000 0.3540120079 0.4596523119  Biso 1.0 Ge
Ge18 1.0000000000 0.7500000000 0.1459879921 0.9596523119  Biso 1.0 Ge
Ge19 1.0000000000 0.7500000000 0.6459879921 0.5403476881  Biso 1.0 Ge
Ge20 1.0000000000 0.2500000000 0.8540120079 0.0403476881  Biso 1.0 Ge
