# AFLOW.org Repositories
# Al2C3Th2   [ORC,ORC,oP14] (STD_PRIM doi:
data_Al2C3Th2
_pd_phase_name Al2C3Th2
_cell_length_a  3.5906256609
_cell_length_b  5.5227626318
_cell_length_c  11.8201484308
_cell_angle_alpha  90.0000000000
_cell_angle_beta  90.0000000000
_cell_angle_gamma  90.0000000000
_symmetry_space_group_name_H-M  'P1'
_symmetry_Int_Tables_Number  1
loop_
_symmetry_equiv_pos_site_id
_symmetry_equiv_pos_as_xyz
  1  x,y,z
loop_
 _atom_site_label
 _atom_site_occupancy
 _atom_site_fract_x
 _atom_site_fract_y
 _atom_site_fract_z
 _atom_site_thermal_displace_type
 _atom_site_B_iso_or_equiv
 _atom_site_type_symbol
Al1 1.0000000000 0.0000000000 0.3115822553 0.9146757448  Biso 1.0 Al
Al2 1.0000000000 0.0000000000 0.6884177447 0.0853242552  Biso 1.0 Al
Al3 1.0000000000 0.5000000000 0.1884177447 0.4146757448  Biso 1.0 Al
Al4 1.0000000000 0.5000000000 0.8115822553 0.5853242552  Biso 1.0 Al
C5 1.0000000000 0.0000000000 0.1681023945 0.3190375020  Biso 1.0 C
C6 1.0000000000 0.0000000000 0.8318976055 0.6809624980  Biso 1.0 C
C7 1.0000000000 0.5000000000 0.3318976055 0.8190375020  Biso 1.0 C
C8 1.0000000000 0.5000000000 0.6681023945 0.1809624980  Biso 1.0 C
C9 1.0000000000 0.0000000000 0.0000000000 0.0000000000  Biso 1.0 C
C10 1.0000000000 0.5000000000 0.5000000000 0.5000000000  Biso 1.0 C
Th11 1.0000000000 0.0000000000 0.3213688110 0.6480754758  Biso 1.0 Th
Th12 1.0000000000 0.0000000000 0.6786311890 0.3519245242  Biso 1.0 Th
Th13 1.0000000000 0.5000000000 0.1786311890 0.1480754758  Biso 1.0 Th
Th14 1.0000000000 0.5000000000 0.8213688110 0.8519245242  Biso 1.0 Th
