# AFLOW.org Repositories
# Al2Co1O4   [FCC,FCC,cF56] (STD_PRIM doi:
data_Al2Co1O4
_pd_phase_name Al2Co1O4
_cell_length_a  5.7896910367
_cell_length_b  5.7896910367
_cell_length_c  5.7896910367
_cell_angle_alpha  60.0000000000
_cell_angle_beta  60.0000000000
_cell_angle_gamma  60.0000000000
_symmetry_space_group_name_H-M  'P1'
_symmetry_Int_Tables_Number  1
loop_
_symmetry_equiv_pos_site_id
_symmetry_equiv_pos_as_xyz
  1  x,y,z
loop_
 _atom_site_label
 _atom_site_occupancy
 _atom_site_fract_x
 _atom_site_fract_y
 _atom_site_fract_z
 _atom_site_thermal_displace_type
 _atom_site_B_iso_or_equiv
 _atom_site_type_symbol
Al1 1.0000000000 0.5000000000 0.5000000000 0.5000000000  Biso 1.0 Al
Al2 1.0000000000 0.5000000000 0.0000000000 0.0000000000  Biso 1.0 Al
Al3 1.0000000000 0.5000000000 0.5000000000 0.0000000000  Biso 1.0 Al
Al4 1.0000000000 0.0000000000 0.5000000000 0.0000000000  Biso 1.0 Al
Co5 1.0000000000 0.1250000000 0.1250000000 0.6250000000  Biso 1.0 Co
Co6 1.0000000000 0.8750000000 0.8750000000 0.3750000000  Biso 1.0 Co
O7 1.0000000000 0.2645481860 0.2645481860 0.2063554419  Biso 1.0 O
O8 1.0000000000 0.2645481860 0.7063554419 0.7645481860  Biso 1.0 O
O9 1.0000000000 0.2645481860 0.2645481860 0.7645481860  Biso 1.0 O
O10 1.0000000000 0.7063554419 0.2645481860 0.7645481860  Biso 1.0 O
O11 1.0000000000 0.7354518140 0.2936445581 0.2354518140  Biso 1.0 O
O12 1.0000000000 0.7354518140 0.7354518140 0.7936445581  Biso 1.0 O
O13 1.0000000000 0.7354518140 0.7354518140 0.2354518140  Biso 1.0 O
O14 1.0000000000 0.2936445581 0.7354518140 0.2354518140  Biso 1.0 O
