# AFLOW.org Repositories
# Al2Co1Zr6   [HEX,HEX,hP9] (STD_PRIM doi:
data_Al2Co1Zr6
_pd_phase_name Al2Co1Zr6
_cell_length_a  7.9426998923
_cell_length_b  7.9426998923
_cell_length_c  3.3196304482
_cell_angle_alpha  90.0000000000
_cell_angle_beta  90.0000000000
_cell_angle_gamma  120.0000000000
_symmetry_space_group_name_H-M  'P1'
_symmetry_Int_Tables_Number  1
loop_
_symmetry_equiv_pos_site_id
_symmetry_equiv_pos_as_xyz
  1  x,y,z
loop_
 _atom_site_label
 _atom_site_occupancy
 _atom_site_fract_x
 _atom_site_fract_y
 _atom_site_fract_z
 _atom_site_thermal_displace_type
 _atom_site_B_iso_or_equiv
 _atom_site_type_symbol
Al1 1.0000000000 0.6666279907 0.3332911316 0.5000000000  Biso 1.0 Al
Al2 1.0000000000 0.3333368592 0.6667088684 0.5000000000  Biso 1.0 Al
Co3 1.0000000000 0.0000000000 0.0000000000 0.0000000000  Biso 1.0 Co
Zr4 1.0000000000 0.0000000000 0.4028791671 0.0000000000  Biso 1.0 Zr
Zr5 1.0000000000 0.5971208329 0.5971208329 0.0000000000  Biso 1.0 Zr
Zr6 1.0000000000 0.4028727659 0.0000000000 0.0000000000  Biso 1.0 Zr
Zr7 1.0000000000 0.0000000000 0.7517269355 0.5000000000  Biso 1.0 Zr
Zr8 1.0000000000 0.2482730645 0.2482730645 0.5000000000  Biso 1.0 Zr
Zr9 1.0000000000 0.7517042656 0.0000000000 0.5000000000  Biso 1.0 Zr
