# AFLOW.org Repositories
# Al2Cd1O4   [FCC,FCC,cF56] (STD_PRIM doi:
data_Al2Cd1O4
_pd_phase_name Al2Cd1O4
_cell_length_a  5.9885369999
_cell_length_b  5.9885369999
_cell_length_c  5.9885369999
_cell_angle_alpha  60.0000000000
_cell_angle_beta  60.0000000000
_cell_angle_gamma  60.0000000000
_symmetry_space_group_name_H-M  'P1'
_symmetry_Int_Tables_Number  1
loop_
_symmetry_equiv_pos_site_id
_symmetry_equiv_pos_as_xyz
  1  x,y,z
loop_
 _atom_site_label
 _atom_site_occupancy
 _atom_site_fract_x
 _atom_site_fract_y
 _atom_site_fract_z
 _atom_site_thermal_displace_type
 _atom_site_B_iso_or_equiv
 _atom_site_type_symbol
Al1 1.0000000000 0.5000000000 0.5000000000 0.5000000000  Biso 1.0 Al
Al2 1.0000000000 0.0000000000 0.5000000000 0.0000000000  Biso 1.0 Al
Al3 1.0000000000 0.5000000000 0.0000000000 0.0000000000  Biso 1.0 Al
Al4 1.0000000000 0.5000000000 0.5000000000 0.0000000000  Biso 1.0 Al
Cd5 1.0000000000 0.1250000000 0.1250000000 0.6250000000  Biso 1.0 Cd
Cd6 1.0000000000 0.8750000000 0.8750000000 0.3750000000  Biso 1.0 Cd
O7 1.0000000000 0.2702460849 0.2702460849 0.1892617452  Biso 1.0 O
O8 1.0000000000 0.6892617452 0.2702460849 0.7702460849  Biso 1.0 O
O9 1.0000000000 0.2702460849 0.6892617452 0.7702460849  Biso 1.0 O
O10 1.0000000000 0.2702460849 0.2702460849 0.7702460849  Biso 1.0 O
O11 1.0000000000 0.3107382548 0.7297539151 0.2297539151  Biso 1.0 O
O12 1.0000000000 0.7297539151 0.7297539151 0.8107382548  Biso 1.0 O
O13 1.0000000000 0.7297539151 0.3107382548 0.2297539151  Biso 1.0 O
O14 1.0000000000 0.7297539151 0.7297539151 0.2297539151  Biso 1.0 O
