# AFLOW.org Repositories
# Al2Dy3   [TET,TET,tP20] (STD_PRIM doi:10
data_Al2Dy3
_pd_phase_name Al2Dy3
_cell_length_a  8.2408020170
_cell_length_b  8.2408020170
_cell_length_c  7.5866392120
_cell_angle_alpha  90.0000000000
_cell_angle_beta  90.0000000000
_cell_angle_gamma  90.0000000000
_symmetry_space_group_name_H-M  'P1'
_symmetry_Int_Tables_Number  1
loop_
_symmetry_equiv_pos_site_id
_symmetry_equiv_pos_as_xyz
  1  x,y,z
loop_
 _atom_site_label
 _atom_site_occupancy
 _atom_site_fract_x
 _atom_site_fract_y
 _atom_site_fract_z
 _atom_site_thermal_displace_type
 _atom_site_B_iso_or_equiv
 _atom_site_type_symbol
Al1 1.0000000000 0.3806160938 0.3806160938 0.0613362242  Biso 1.0 Al
Al2 1.0000000000 0.6193839062 0.6193839062 0.0613362242  Biso 1.0 Al
Al3 1.0000000000 0.1193839062 0.8806160938 0.5613362242  Biso 1.0 Al
Al4 1.0000000000 0.8806160938 0.1193839062 0.5613362242  Biso 1.0 Al
Al5 1.0000000000 0.3805012368 0.3805012368 0.4509223266  Biso 1.0 Al
Al6 1.0000000000 0.6194987632 0.6194987632 0.4509223266  Biso 1.0 Al
Al7 1.0000000000 0.1194987632 0.8805012368 0.9509223266  Biso 1.0 Al
Al8 1.0000000000 0.8805012368 0.1194987632 0.9509223266  Biso 1.0 Al
Dy9 1.0000000000 0.1494606579 0.1494606579 0.2560381563  Biso 1.0 Dy
Dy10 1.0000000000 0.8505393421 0.8505393421 0.2560381563  Biso 1.0 Dy
Dy11 1.0000000000 0.3505393421 0.6494606579 0.7560381563  Biso 1.0 Dy
Dy12 1.0000000000 0.6494606579 0.3505393421 0.7560381563  Biso 1.0 Dy
Dy13 1.0000000000 0.2012626526 0.2012626526 0.7562703023  Biso 1.0 Dy
Dy14 1.0000000000 0.7987373474 0.7987373474 0.7562703023  Biso 1.0 Dy
Dy15 1.0000000000 0.2987373474 0.7012626526 0.2562703023  Biso 1.0 Dy
Dy16 1.0000000000 0.7012626526 0.2987373474 0.2562703023  Biso 1.0 Dy
Dy17 1.0000000000 0.0000000000 0.5000000000 0.5064329905  Biso 1.0 Dy
Dy18 1.0000000000 0.0000000000 0.5000000000 0.0064329905  Biso 1.0 Dy
Dy19 1.0000000000 0.5000000000 0.0000000000 0.0064329905  Biso 1.0 Dy
Dy20 1.0000000000 0.5000000000 0.0000000000 0.5064329905  Biso 1.0 Dy
