# AFLOW.org Repositories
# Al2Fe3Si4   [ORCC,ORCC,oS36] (STD_PRIM d
data_Al2Fe3Si4
_pd_phase_name Al2Fe3Si4
_cell_length_a  6.3776738342
_cell_length_b  6.3776738342
_cell_length_c  10.0487276391
_cell_angle_alpha  90.0000000000
_cell_angle_beta  90.0000000000
_cell_angle_gamma  147.1240889826
_symmetry_space_group_name_H-M  'P1'
_symmetry_Int_Tables_Number  1
loop_
_symmetry_equiv_pos_site_id
_symmetry_equiv_pos_as_xyz
  1  x,y,z
loop_
 _atom_site_label
 _atom_site_occupancy
 _atom_site_fract_x
 _atom_site_fract_y
 _atom_site_fract_z
 _atom_site_thermal_displace_type
 _atom_site_B_iso_or_equiv
 _atom_site_type_symbol
Al1 1.0000000000 0.9434956576 0.0565043424 0.3911080637  Biso 1.0 Al
Al2 1.0000000000 0.0565043424 0.9434956576 0.8911080637  Biso 1.0 Al
Al3 1.0000000000 0.9434956576 0.0565043424 0.1088919363  Biso 1.0 Al
Al4 1.0000000000 0.0565043424 0.9434956576 0.6088919363  Biso 1.0 Al
Fe5 1.0000000000 0.8496832212 0.1503167788 0.8729856676  Biso 1.0 Fe
Fe6 1.0000000000 0.1503167788 0.8496832212 0.3729856676  Biso 1.0 Fe
Fe7 1.0000000000 0.8496832212 0.1503167788 0.6270143324  Biso 1.0 Fe
Fe8 1.0000000000 0.1503167788 0.8496832212 0.1270143324  Biso 1.0 Fe
Fe9 1.0000000000 0.6456290381 0.3543709619 0.7500000000  Biso 1.0 Fe
Fe10 1.0000000000 0.3543709619 0.6456290381 0.2500000000  Biso 1.0 Fe
Si11 1.0000000000 0.6816170340 0.3183829660 0.9849001133  Biso 1.0 Si
Si12 1.0000000000 0.3183829660 0.6816170340 0.4849001133  Biso 1.0 Si
Si13 1.0000000000 0.6816170340 0.3183829660 0.5150998867  Biso 1.0 Si
Si14 1.0000000000 0.3183829660 0.6816170340 0.0150998867  Biso 1.0 Si
Si15 1.0000000000 0.4527141234 0.5472858766 0.7500000000  Biso 1.0 Si
Si16 1.0000000000 0.5472858766 0.4527141234 0.2500000000  Biso 1.0 Si
Si17 1.0000000000 0.2572307684 0.7427692316 0.7500000000  Biso 1.0 Si
Si18 1.0000000000 0.7427692316 0.2572307684 0.2500000000  Biso 1.0 Si
