# AFLOW.org Repositories
# Al2Hg1Te4   [BCT,BCT2,tI14] (STD_PRIM do
data_Al2Hg1Te4
_pd_phase_name Al2Hg1Te4
_cell_length_a  7.4431972362
_cell_length_b  7.4431972362
_cell_length_c  7.4431972362
_cell_angle_alpha  129.9932893955
_cell_angle_beta  129.9932893955
_cell_angle_gamma  73.4174929510
_symmetry_space_group_name_H-M  'P1'
_symmetry_Int_Tables_Number  1
loop_
_symmetry_equiv_pos_site_id
_symmetry_equiv_pos_as_xyz
  1  x,y,z
loop_
 _atom_site_label
 _atom_site_occupancy
 _atom_site_fract_x
 _atom_site_fract_y
 _atom_site_fract_z
 _atom_site_thermal_displace_type
 _atom_site_B_iso_or_equiv
 _atom_site_type_symbol
Al1 1.0000000000 0.5000000000 0.5000000000 0.0000000000  Biso 1.0 Al
Al2 1.0000000000 0.2500000000 0.7500000000 0.5000000000  Biso 1.0 Al
Hg3 1.0000000000 0.0000000000 0.0000000000 0.0000000000  Biso 1.0 Hg
Te4 1.0000000000 0.4132185664 0.8816845066 0.0177903101  Biso 1.0 Te
Te5 1.0000000000 0.8638941966 0.3954282563 0.9822096899  Biso 1.0 Te
Te6 1.0000000000 0.1183154934 0.1361058034 0.5315340598  Biso 1.0 Te
Te7 1.0000000000 0.6045717437 0.5867814336 0.4684659402  Biso 1.0 Te
