# AFLOW.org Repositories
# Al2Hg1S4   [BCT,BCT2,tI14] (STD_PRIM doi
data_Al2Hg1S4
_pd_phase_name Al2Hg1S4
_cell_length_a  6.5214554295
_cell_length_b  6.5214554295
_cell_length_c  6.5214554295
_cell_angle_alpha  128.8549717627
_cell_angle_beta  128.8549717627
_cell_angle_gamma  75.2440424592
_symmetry_space_group_name_H-M  'P1'
_symmetry_Int_Tables_Number  1
loop_
_symmetry_equiv_pos_site_id
_symmetry_equiv_pos_as_xyz
  1  x,y,z
loop_
 _atom_site_label
 _atom_site_occupancy
 _atom_site_fract_x
 _atom_site_fract_y
 _atom_site_fract_z
 _atom_site_thermal_displace_type
 _atom_site_B_iso_or_equiv
 _atom_site_type_symbol
Al1 1.0000000000 0.5000000000 0.5000000000 0.0000000000  Biso 1.0 Al
Al2 1.0000000000 0.7500000000 0.2500000000 0.5000000000  Biso 1.0 Al
Hg3 1.0000000000 0.0000000000 0.0000000000 0.0000000000  Biso 1.0 Hg
S4 1.0000000000 0.4170748587 0.4024432861 0.5486309610  Biso 1.0 S
S5 1.0000000000 0.8538123251 0.8684438977 0.4513690390  Biso 1.0 S
S6 1.0000000000 0.5975567139 0.1461876749 0.0146315726  Biso 1.0 S
S7 1.0000000000 0.1315561023 0.5829251413 0.9853684274  Biso 1.0 S
