# AFLOW.org Repositories
# Al2Hf3   [TET,TET,tP20] (STD_PRIM doi:10
data_Al2Hf3
_pd_phase_name Al2Hf3
_cell_length_a  7.5844565382
_cell_length_b  7.5844565382
_cell_length_c  6.8844933017
_cell_angle_alpha  90.0000000000
_cell_angle_beta  90.0000000000
_cell_angle_gamma  90.0000000000
_symmetry_space_group_name_H-M  'P1'
_symmetry_Int_Tables_Number  1
loop_
_symmetry_equiv_pos_site_id
_symmetry_equiv_pos_as_xyz
  1  x,y,z
loop_
 _atom_site_label
 _atom_site_occupancy
 _atom_site_fract_x
 _atom_site_fract_y
 _atom_site_fract_z
 _atom_site_thermal_displace_type
 _atom_site_B_iso_or_equiv
 _atom_site_type_symbol
Al1 1.0000000000 0.1213852801 0.1213852801 0.2110535464  Biso 1.0 Al
Al2 1.0000000000 0.8786147199 0.8786147199 0.2110535464  Biso 1.0 Al
Al3 1.0000000000 0.3786147199 0.6213852801 0.7110535464  Biso 1.0 Al
Al4 1.0000000000 0.6213852801 0.3786147199 0.7110535464  Biso 1.0 Al
Al5 1.0000000000 0.3786147199 0.6213852801 0.2889464536  Biso 1.0 Al
Al6 1.0000000000 0.6213852801 0.3786147199 0.2889464536  Biso 1.0 Al
Al7 1.0000000000 0.1213852801 0.1213852801 0.7889464536  Biso 1.0 Al
Al8 1.0000000000 0.8786147199 0.8786147199 0.7889464536  Biso 1.0 Al
Hf9 1.0000000000 0.3446088215 0.3446088215 0.0000000000  Biso 1.0 Hf
Hf10 1.0000000000 0.6553911785 0.6553911785 0.0000000000  Biso 1.0 Hf
Hf11 1.0000000000 0.1553911785 0.8446088215 0.5000000000  Biso 1.0 Hf
Hf12 1.0000000000 0.8446088215 0.1553911785 0.5000000000  Biso 1.0 Hf
Hf13 1.0000000000 0.2016514237 0.7983485763 0.0000000000  Biso 1.0 Hf
Hf14 1.0000000000 0.7983485763 0.2016514237 0.0000000000  Biso 1.0 Hf
Hf15 1.0000000000 0.7016514237 0.7016514237 0.5000000000  Biso 1.0 Hf
Hf16 1.0000000000 0.2983485763 0.2983485763 0.5000000000  Biso 1.0 Hf
Hf17 1.0000000000 0.0000000000 0.5000000000 0.2500000000  Biso 1.0 Hf
Hf18 1.0000000000 0.0000000000 0.5000000000 0.7500000000  Biso 1.0 Hf
Hf19 1.0000000000 0.5000000000 0.0000000000 0.2500000000  Biso 1.0 Hf
Hf20 1.0000000000 0.5000000000 0.0000000000 0.7500000000  Biso 1.0 Hf
