# AFLOW.org Repositories
# Al2Hf1   [HEX,HEX,hP12] (STD_PRIM doi:10
data_Al2Hf1
_pd_phase_name Al2Hf1
_cell_length_a  5.2542885663
_cell_length_b  5.2542885663
_cell_length_c  8.7005680390
_cell_angle_alpha  90.0000000000
_cell_angle_beta  90.0000000000
_cell_angle_gamma  120.0000000000
_symmetry_space_group_name_H-M  'P1'
_symmetry_Int_Tables_Number  1
loop_
_symmetry_equiv_pos_site_id
_symmetry_equiv_pos_as_xyz
  1  x,y,z
loop_
 _atom_site_label
 _atom_site_occupancy
 _atom_site_fract_x
 _atom_site_fract_y
 _atom_site_fract_z
 _atom_site_thermal_displace_type
 _atom_site_B_iso_or_equiv
 _atom_site_type_symbol
Al1 1.0000000000 0.0000000000 0.0000000000 0.0000000000  Biso 1.0 Al
Al2 1.0000000000 0.0000000000 0.0000000000 0.5000000000  Biso 1.0 Al
Al3 1.0000000000 0.6582263215 0.8291189589 0.2500000000  Biso 1.0 Al
Al4 1.0000000000 0.1708926374 0.8291189589 0.2500000000  Biso 1.0 Al
Al5 1.0000000000 0.1708901272 0.3417802544 0.2500000000  Biso 1.0 Al
Al6 1.0000000000 0.3417736785 0.1708810411 0.7500000000  Biso 1.0 Al
Al7 1.0000000000 0.8291073626 0.1708810411 0.7500000000  Biso 1.0 Al
Al8 1.0000000000 0.8291098728 0.6582197456 0.7500000000  Biso 1.0 Al
Hf9 1.0000000000 0.6666724008 0.3333448016 0.0641029707  Biso 1.0 Hf
Hf10 1.0000000000 0.3333275992 0.6666551984 0.5641029707  Biso 1.0 Hf
Hf11 1.0000000000 0.3333275992 0.6666551984 0.9358970293  Biso 1.0 Hf
Hf12 1.0000000000 0.6666724008 0.3333448016 0.4358970293  Biso 1.0 Hf
