# AFLOW.org Repositories
# Al2Mg1   [BCT,BCT2,tI24] (STD_PRIM doi:1
data_Al2Mg1
_pd_phase_name Al2Mg1
_cell_length_a  12.9763989387
_cell_length_b  12.9763989387
_cell_length_c  12.9763989387
_cell_angle_alpha  161.4671610428
_cell_angle_beta  161.4671610428
_cell_angle_gamma  26.3262590197
_symmetry_space_group_name_H-M  'P1'
_symmetry_Int_Tables_Number  1
loop_
_symmetry_equiv_pos_site_id
_symmetry_equiv_pos_as_xyz
  1  x,y,z
loop_
 _atom_site_label
 _atom_site_occupancy
 _atom_site_fract_x
 _atom_site_fract_y
 _atom_site_fract_z
 _atom_site_thermal_displace_type
 _atom_site_B_iso_or_equiv
 _atom_site_type_symbol
Al1 1.0000000000 0.7503201450 0.7503201450 0.0000000000  Biso 1.0 Al
Al2 1.0000000000 0.0000000000 0.5000000000 0.5000000000  Biso 1.0 Al
Al3 1.0000000000 0.4996798550 0.0000000000 0.4996798550  Biso 1.0 Al
Al4 1.0000000000 0.2496798550 0.2496798550 0.0000000000  Biso 1.0 Al
Al5 1.0000000000 0.5826699316 0.5826699316 0.0000000000  Biso 1.0 Al
Al6 1.0000000000 0.8326699316 0.3326699316 0.5000000000  Biso 1.0 Al
Al7 1.0000000000 0.6673300684 0.1673300684 0.5000000000  Biso 1.0 Al
Al8 1.0000000000 0.4173300684 0.4173300684 0.0000000000  Biso 1.0 Al
Mg9 1.0000000000 0.9181923892 0.9181923892 0.0000000000  Biso 1.0 Mg
Mg10 1.0000000000 0.1681923892 0.6681923892 0.5000000000  Biso 1.0 Mg
Mg11 1.0000000000 0.3318076108 0.8318076108 0.5000000000  Biso 1.0 Mg
Mg12 1.0000000000 0.0818076108 0.0818076108 0.0000000000  Biso 1.0 Mg
