# AFLOW.org Repositories
# Al2Ni1Y1   [ORCC,ORCC,oS16] (STD_PRIM do
data_Al2Ni1Y1
_pd_phase_name Al2Ni1Y1
_cell_length_a  5.5354671482
_cell_length_b  5.5354671482
_cell_length_c  6.8603256620
_cell_angle_alpha  90.0000000000
_cell_angle_beta  90.0000000000
_cell_angle_gamma  137.3505559436
_symmetry_space_group_name_H-M  'P1'
_symmetry_Int_Tables_Number  1
loop_
_symmetry_equiv_pos_site_id
_symmetry_equiv_pos_as_xyz
  1  x,y,z
loop_
 _atom_site_label
 _atom_site_occupancy
 _atom_site_fract_x
 _atom_site_fract_y
 _atom_site_fract_z
 _atom_site_thermal_displace_type
 _atom_site_B_iso_or_equiv
 _atom_site_type_symbol
Al1 1.0000000000 0.6597243251 0.3402756749 0.9453401711  Biso 1.0 Al
Al2 1.0000000000 0.3402756749 0.6597243251 0.4453401711  Biso 1.0 Al
Al3 1.0000000000 0.6597243251 0.3402756749 0.5546598289  Biso 1.0 Al
Al4 1.0000000000 0.3402756749 0.6597243251 0.0546598289  Biso 1.0 Al
Ni5 1.0000000000 0.2168361328 0.7831638672 0.7500000000  Biso 1.0 Ni
Ni6 1.0000000000 0.7831638672 0.2168361328 0.2500000000  Biso 1.0 Ni
Y7 1.0000000000 0.9416844773 0.0583155227 0.7500000000  Biso 1.0 Y
Y8 1.0000000000 0.0583155227 0.9416844773 0.2500000000  Biso 1.0 Y
