# AFLOW.org Repositories
# Al2O5Si1   [ORCC,ORCC,oS32] (STD_PRIM do
data_Al2O5Si1
_pd_phase_name Al2O5Si1
_cell_length_a  4.9764335125
_cell_length_b  4.9764335125
_cell_length_c  9.1756949696
_cell_angle_alpha  90.0000000000
_cell_angle_beta  90.0000000000
_cell_angle_gamma  138.0341990520
_symmetry_space_group_name_H-M  'P1'
_symmetry_Int_Tables_Number  1
loop_
_symmetry_equiv_pos_site_id
_symmetry_equiv_pos_as_xyz
  1  x,y,z
loop_
 _atom_site_label
 _atom_site_occupancy
 _atom_site_fract_x
 _atom_site_fract_y
 _atom_site_fract_z
 _atom_site_thermal_displace_type
 _atom_site_B_iso_or_equiv
 _atom_site_type_symbol
Al1 1.0000000000 0.1350446838 0.8649553162 0.4324264391  Biso 1.0 Al
Al2 1.0000000000 0.8649553162 0.1350446838 0.9324264391  Biso 1.0 Al
Al3 1.0000000000 0.1350446838 0.8649553162 0.0675735609  Biso 1.0 Al
Al4 1.0000000000 0.8649553162 0.1350446838 0.5675735609  Biso 1.0 Al
O5 1.0000000000 0.7397057311 0.2602942689 0.7500000000  Biso 1.0 O
O6 1.0000000000 0.2602942689 0.7397057311 0.2500000000  Biso 1.0 O
O7 1.0000000000 0.0550772939 0.9449227061 0.8823178852  Biso 1.0 O
O8 1.0000000000 0.9449227061 0.0550772939 0.3823178852  Biso 1.0 O
O9 1.0000000000 0.0550772939 0.9449227061 0.6176821148  Biso 1.0 O
O10 1.0000000000 0.9449227061 0.0550772939 0.1176821148  Biso 1.0 O
O11 1.0000000000 0.3127438026 0.6872561974 0.9098251291  Biso 1.0 O
O12 1.0000000000 0.6872561974 0.3127438026 0.4098251291  Biso 1.0 O
O13 1.0000000000 0.3127438026 0.6872561974 0.5901748709  Biso 1.0 O
O14 1.0000000000 0.6872561974 0.3127438026 0.0901748709  Biso 1.0 O
Si15 1.0000000000 0.1840357060 0.8159642940 0.7500000000  Biso 1.0 Si
Si16 1.0000000000 0.8159642940 0.1840357060 0.2500000000  Biso 1.0 Si
