# AFLOW.org Repositories
# Al2O4Pb1   [ORCC,ORCC,oS28] (STD_PRIM do
data_Al2O4Pb1
_pd_phase_name Al2O4Pb1
_cell_length_a  5.3242352386
_cell_length_b  5.3242352386
_cell_length_c  8.5764954012
_cell_angle_alpha  90.0000000000
_cell_angle_beta  90.0000000000
_cell_angle_gamma  121.9508154102
_symmetry_space_group_name_H-M  'P1'
_symmetry_Int_Tables_Number  1
loop_
_symmetry_equiv_pos_site_id
_symmetry_equiv_pos_as_xyz
  1  x,y,z
loop_
 _atom_site_label
 _atom_site_occupancy
 _atom_site_fract_x
 _atom_site_fract_y
 _atom_site_fract_z
 _atom_site_thermal_displace_type
 _atom_site_B_iso_or_equiv
 _atom_site_type_symbol
Al1 1.0000000000 0.7047188843 0.3602616253 0.0548133262  Biso 1.0 Al
Al2 1.0000000000 0.3608684883 0.7041602182 0.9460406067  Biso 1.0 Al
Al3 1.0000000000 0.3601138683 0.7050683092 0.5548341513  Biso 1.0 Al
Al4 1.0000000000 0.7039444492 0.3612189875 0.4460798284  Biso 1.0 Al
O5 1.0000000000 0.3826568143 0.0000000000 0.0543489469  Biso 1.0 O
O6 1.0000000000 0.3818180372 0.0000000000 0.4468122263  Biso 1.0 O
O7 1.0000000000 0.6424590022 0.6424590022 0.0000000000  Biso 1.0 O
O8 1.0000000000 0.6414899926 0.6429526796 0.4999239876  Biso 1.0 O
O9 1.0000000000 0.0000000000 0.3817936709 0.9469040347  Biso 1.0 O
O10 1.0000000000 0.0000000000 0.3829427707 0.5543130445  Biso 1.0 O
O11 1.0000000000 0.4606410836 0.8343554483 0.7504998557  Biso 1.0 O
O12 1.0000000000 0.8334622157 0.4606498569 0.2504876513  Biso 1.0 O
Pb13 1.0000000000 0.0311287266 0.9684424831 0.2498568936  Biso 1.0 Pb
Pb14 1.0000000000 0.9684071982 0.0311763593 0.7499222250  Biso 1.0 Pb
