# AFLOW.org Repositories
# Al2O4Zn1   [FCC,FCC,cF56] (STD_PRIM doi:
data_Al2O4Zn1
_pd_phase_name Al2O4Zn1
_cell_length_a  5.7317429830
_cell_length_b  5.7317429830
_cell_length_c  5.7317429830
_cell_angle_alpha  60.0000000000
_cell_angle_beta  60.0000000000
_cell_angle_gamma  60.0000000000
_symmetry_space_group_name_H-M  'P1'
_symmetry_Int_Tables_Number  1
loop_
_symmetry_equiv_pos_site_id
_symmetry_equiv_pos_as_xyz
  1  x,y,z
loop_
 _atom_site_label
 _atom_site_occupancy
 _atom_site_fract_x
 _atom_site_fract_y
 _atom_site_fract_z
 _atom_site_thermal_displace_type
 _atom_site_B_iso_or_equiv
 _atom_site_type_symbol
Al1 1.0000000000 0.5000000000 0.5000000000 0.5000000000  Biso 1.0 Al
Al2 1.0000000000 0.5000000000 0.0000000000 0.0000000000  Biso 1.0 Al
Al3 1.0000000000 0.5000000000 0.0000000000 0.5000000000  Biso 1.0 Al
Al4 1.0000000000 0.0000000000 0.0000000000 0.5000000000  Biso 1.0 Al
O5 1.0000000000 0.7372315684 0.7883052947 0.7372315684  Biso 1.0 O
O6 1.0000000000 0.7372315684 0.2372315684 0.2883052947  Biso 1.0 O
O7 1.0000000000 0.7372315684 0.2372315684 0.7372315684  Biso 1.0 O
O8 1.0000000000 0.2883052947 0.2372315684 0.7372315684  Biso 1.0 O
O9 1.0000000000 0.2627684316 0.7627684316 0.7116947053  Biso 1.0 O
O10 1.0000000000 0.2627684316 0.2116947053 0.2627684316  Biso 1.0 O
O11 1.0000000000 0.2627684316 0.7627684316 0.2627684316  Biso 1.0 O
O12 1.0000000000 0.7116947053 0.7627684316 0.2627684316  Biso 1.0 O
Zn13 1.0000000000 0.8750000000 0.3750000000 0.8750000000  Biso 1.0 Zn
Zn14 1.0000000000 0.1250000000 0.6250000000 0.1250000000  Biso 1.0 Zn
