# AFLOW.org Repositories
# Al2Pb1S4   [ORCC,ORCC,oS28] (STD_PRIM do
data_Al2Pb1S4
_pd_phase_name Al2Pb1S4
_cell_length_a  6.0575300109
_cell_length_b  6.0575300109
_cell_length_c  10.6078302401
_cell_angle_alpha  90.0000000000
_cell_angle_beta  90.0000000000
_cell_angle_gamma  120.9869863685
_symmetry_space_group_name_H-M  'P1'
_symmetry_Int_Tables_Number  1
loop_
_symmetry_equiv_pos_site_id
_symmetry_equiv_pos_as_xyz
  1  x,y,z
loop_
 _atom_site_label
 _atom_site_occupancy
 _atom_site_fract_x
 _atom_site_fract_y
 _atom_site_fract_z
 _atom_site_thermal_displace_type
 _atom_site_B_iso_or_equiv
 _atom_site_type_symbol
Al1 1.0000000000 0.7617309881 0.2402799199 0.0000000000  Biso 1.0 Al
Al2 1.0000000000 0.2382690119 0.7597200801 0.0000000000  Biso 1.0 Al
Al3 1.0000000000 0.7597200801 0.2382690119 0.5000000000  Biso 1.0 Al
Al4 1.0000000000 0.2402799199 0.7617309881 0.5000000000  Biso 1.0 Al
Pb5 1.0000000000 0.5000000000 0.5000000000 0.7500000000  Biso 1.0 Pb
Pb6 1.0000000000 0.5000000000 0.5000000000 0.2500000000  Biso 1.0 Pb
S7 1.0000000000 0.3547647585 0.1794701999 0.0000000000  Biso 1.0 S
S8 1.0000000000 0.6452352415 0.8205298001 0.0000000000  Biso 1.0 S
S9 1.0000000000 0.8205298001 0.6452352415 0.5000000000  Biso 1.0 S
S10 1.0000000000 0.1794701999 0.3547647585 0.5000000000  Biso 1.0 S
S11 1.0000000000 0.5000000000 0.0000000000 0.6623996708  Biso 1.0 S
S12 1.0000000000 0.0000000000 0.5000000000 0.8376003292  Biso 1.0 S
S13 1.0000000000 0.5000000000 0.0000000000 0.3376003292  Biso 1.0 S
S14 1.0000000000 0.0000000000 0.5000000000 0.1623996708  Biso 1.0 S
