# AFLOW.org Repositories
# Al2Pd5U1   [BCT,BCT2,tI16] (STD_PRIM doi
data_Al2Pd5U1
_pd_phase_name Al2Pd5U1
_cell_length_a  8.0845093290
_cell_length_b  8.0845093290
_cell_length_c  8.0845093290
_cell_angle_alpha  149.8442273827
_cell_angle_beta  149.8442273827
_cell_angle_gamma  43.1701081096
_symmetry_space_group_name_H-M  'P1'
_symmetry_Int_Tables_Number  1
loop_
_symmetry_equiv_pos_site_id
_symmetry_equiv_pos_as_xyz
  1  x,y,z
loop_
 _atom_site_label
 _atom_site_occupancy
 _atom_site_fract_x
 _atom_site_fract_y
 _atom_site_fract_z
 _atom_site_thermal_displace_type
 _atom_site_B_iso_or_equiv
 _atom_site_type_symbol
Al1 1.0000000000 0.7450620230 0.7450620230 0.0000000000  Biso 1.0 Al
Al2 1.0000000000 0.2549379770 0.2549379770 0.0000000000  Biso 1.0 Al
Pd3 1.0000000000 0.5000000000 0.5000000000 0.0000000000  Biso 1.0 Pd
Pd4 1.0000000000 0.8515938104 0.3515938104 0.5000000000  Biso 1.0 Pd
Pd5 1.0000000000 0.3515938104 0.8515938104 0.5000000000  Biso 1.0 Pd
Pd6 1.0000000000 0.1484061896 0.6484061896 0.5000000000  Biso 1.0 Pd
Pd7 1.0000000000 0.6484061896 0.1484061896 0.5000000000  Biso 1.0 Pd
U8 1.0000000000 0.0000000000 0.0000000000 0.0000000000  Biso 1.0 U
