# AFLOW.org Repositories
# Al2Ru1   [BCT,BCT2,tI6] (STD_PRIM doi:10
data_Al2Ru1
_pd_phase_name Al2Ru1
_cell_length_a  4.7827321910
_cell_length_b  4.7827321910
_cell_length_c  4.7827321910
_cell_angle_alpha  141.7507137683
_cell_angle_beta  141.7507137683
_cell_angle_gamma  55.2044851051
_symmetry_space_group_name_H-M  'P1'
_symmetry_Int_Tables_Number  1
loop_
_symmetry_equiv_pos_site_id
_symmetry_equiv_pos_as_xyz
  1  x,y,z
loop_
 _atom_site_label
 _atom_site_occupancy
 _atom_site_fract_x
 _atom_site_fract_y
 _atom_site_fract_z
 _atom_site_thermal_displace_type
 _atom_site_B_iso_or_equiv
 _atom_site_type_symbol
Al1 1.0000000000 0.3408030934 0.3408030934 0.0000000000  Biso 1.0 Al
Al2 1.0000000000 0.6591969066 0.6591969066 0.0000000000  Biso 1.0 Al
Ru3 1.0000000000 0.0000000000 0.0000000000 0.0000000000  Biso 1.0 Ru
