# AFLOW.org Repositories
# Al2S4Sr1   [ORCC,ORCC,oS28] (STD_PRIM do
data_Al2S4Sr1
_pd_phase_name Al2S4Sr1
_cell_length_a  6.0835485361
_cell_length_b  6.0835485361
_cell_length_c  10.6672712246
_cell_angle_alpha  90.0000000000
_cell_angle_beta  90.0000000000
_cell_angle_gamma  121.3309520726
_symmetry_space_group_name_H-M  'P1'
_symmetry_Int_Tables_Number  1
loop_
_symmetry_equiv_pos_site_id
_symmetry_equiv_pos_as_xyz
  1  x,y,z
loop_
 _atom_site_label
 _atom_site_occupancy
 _atom_site_fract_x
 _atom_site_fract_y
 _atom_site_fract_z
 _atom_site_thermal_displace_type
 _atom_site_B_iso_or_equiv
 _atom_site_type_symbol
Al1 1.0000000000 0.7615957171 0.2402523002 0.0000000000  Biso 1.0 Al
Al2 1.0000000000 0.2384042829 0.7597476998 0.0000000000  Biso 1.0 Al
Al3 1.0000000000 0.7597476998 0.2384042829 0.5000000000  Biso 1.0 Al
Al4 1.0000000000 0.2402523002 0.7615957171 0.5000000000  Biso 1.0 Al
S5 1.0000000000 0.3557679205 0.1781643565 0.0000000000  Biso 1.0 S
S6 1.0000000000 0.6442320795 0.8218356435 0.0000000000  Biso 1.0 S
S7 1.0000000000 0.8218356435 0.6442320795 0.5000000000  Biso 1.0 S
S8 1.0000000000 0.1781643565 0.3557679205 0.5000000000  Biso 1.0 S
S9 1.0000000000 0.5000000000 0.0000000000 0.6612055275  Biso 1.0 S
S10 1.0000000000 0.0000000000 0.5000000000 0.8387944725  Biso 1.0 S
S11 1.0000000000 0.5000000000 0.0000000000 0.3387944725  Biso 1.0 S
S12 1.0000000000 0.0000000000 0.5000000000 0.1612055275  Biso 1.0 S
Sr13 1.0000000000 0.5000000000 0.5000000000 0.7500000000  Biso 1.0 Sr
Sr14 1.0000000000 0.5000000000 0.5000000000 0.2500000000  Biso 1.0 Sr
