# AFLOW.org Repositories
# Al2Se4Zn1   [FCC,FCC,cF56] (STD_PRIM doi
data_Al2Se4Zn1
_pd_phase_name Al2Se4Zn1
_cell_length_a  7.5355224975
_cell_length_b  7.5355224975
_cell_length_c  7.5355224975
_cell_angle_alpha  60.0000000000
_cell_angle_beta  60.0000000000
_cell_angle_gamma  60.0000000000
_symmetry_space_group_name_H-M  'P1'
_symmetry_Int_Tables_Number  1
loop_
_symmetry_equiv_pos_site_id
_symmetry_equiv_pos_as_xyz
  1  x,y,z
loop_
 _atom_site_label
 _atom_site_occupancy
 _atom_site_fract_x
 _atom_site_fract_y
 _atom_site_fract_z
 _atom_site_thermal_displace_type
 _atom_site_B_iso_or_equiv
 _atom_site_type_symbol
Al1 1.0000000000 0.0000000000 0.0000000000 0.0000000000  Biso 1.0 Al
Al2 1.0000000000 0.0000000000 0.0000000000 0.5000000000  Biso 1.0 Al
Al3 1.0000000000 0.0000000000 0.5000000000 0.5000000000  Biso 1.0 Al
Al4 1.0000000000 0.5000000000 0.0000000000 0.5000000000  Biso 1.0 Al
Se5 1.0000000000 0.7587863980 0.7587863980 0.7236408059  Biso 1.0 Se
Se6 1.0000000000 0.7587863980 0.7587863980 0.2587863980  Biso 1.0 Se
Se7 1.0000000000 0.7587863980 0.2236408059 0.2587863980  Biso 1.0 Se
Se8 1.0000000000 0.2236408059 0.7587863980 0.2587863980  Biso 1.0 Se
Se9 1.0000000000 0.2412136020 0.2412136020 0.7412136020  Biso 1.0 Se
Se10 1.0000000000 0.2412136020 0.2412136020 0.2763591941  Biso 1.0 Se
Se11 1.0000000000 0.2412136020 0.7763591941 0.7412136020  Biso 1.0 Se
Se12 1.0000000000 0.7763591941 0.2412136020 0.7412136020  Biso 1.0 Se
Zn13 1.0000000000 0.6250000000 0.6250000000 0.1250000000  Biso 1.0 Zn
Zn14 1.0000000000 0.3750000000 0.3750000000 0.8750000000  Biso 1.0 Zn
