# AFLOW.org Repositories
# Al2Th3   [TET,TET,tP10] (STD_PRIM doi:10
data_Al2Th3
_pd_phase_name Al2Th3
_cell_length_a  8.2411960534
_cell_length_b  8.2411960534
_cell_length_c  4.3328212336
_cell_angle_alpha  90.0000000000
_cell_angle_beta  90.0000000000
_cell_angle_gamma  90.0000000000
_symmetry_space_group_name_H-M  'P1'
_symmetry_Int_Tables_Number  1
loop_
_symmetry_equiv_pos_site_id
_symmetry_equiv_pos_as_xyz
  1  x,y,z
loop_
 _atom_site_label
 _atom_site_occupancy
 _atom_site_fract_x
 _atom_site_fract_y
 _atom_site_fract_z
 _atom_site_thermal_displace_type
 _atom_site_B_iso_or_equiv
 _atom_site_type_symbol
Al1 1.0000000000 0.1149143913 0.6149143913 0.0000000000  Biso 1.0 Al
Al2 1.0000000000 0.8850856087 0.3850856087 0.0000000000  Biso 1.0 Al
Al3 1.0000000000 0.3850856087 0.1149143913 0.0000000000  Biso 1.0 Al
Al4 1.0000000000 0.6149143913 0.8850856087 0.0000000000  Biso 1.0 Al
Th5 1.0000000000 0.0000000000 0.0000000000 0.0000000000  Biso 1.0 Th
Th6 1.0000000000 0.5000000000 0.5000000000 0.0000000000  Biso 1.0 Th
Th7 1.0000000000 0.6777174470 0.1777174470 0.5000000000  Biso 1.0 Th
Th8 1.0000000000 0.3222825530 0.8222825530 0.5000000000  Biso 1.0 Th
Th9 1.0000000000 0.8222825530 0.6777174470 0.5000000000  Biso 1.0 Th
Th10 1.0000000000 0.1777174470 0.3222825530 0.5000000000  Biso 1.0 Th
