# AFLOW.org Repositories
# Al2Y3   [TET,TET,tP20] (STD_PRIM doi:10.
data_Al2Y3
_pd_phase_name Al2Y3
_cell_length_a  8.2518935339
_cell_length_b  8.2518935339
_cell_length_c  7.6398682171
_cell_angle_alpha  90.0000000000
_cell_angle_beta  90.0000000000
_cell_angle_gamma  90.0000000000
_symmetry_space_group_name_H-M  'P1'
_symmetry_Int_Tables_Number  1
loop_
_symmetry_equiv_pos_site_id
_symmetry_equiv_pos_as_xyz
  1  x,y,z
loop_
 _atom_site_label
 _atom_site_occupancy
 _atom_site_fract_x
 _atom_site_fract_y
 _atom_site_fract_z
 _atom_site_thermal_displace_type
 _atom_site_B_iso_or_equiv
 _atom_site_type_symbol
Al1 1.0000000000 0.1187035209 0.1187035209 0.1980630847  Biso 1.0 Al
Al2 1.0000000000 0.8812964791 0.8812964791 0.1980630847  Biso 1.0 Al
Al3 1.0000000000 0.3812964791 0.6187035209 0.6980630847  Biso 1.0 Al
Al4 1.0000000000 0.6187035209 0.3812964791 0.6980630847  Biso 1.0 Al
Al5 1.0000000000 0.3812964791 0.6187035209 0.3019369153  Biso 1.0 Al
Al6 1.0000000000 0.6187035209 0.3812964791 0.3019369153  Biso 1.0 Al
Al7 1.0000000000 0.1187035209 0.1187035209 0.8019369153  Biso 1.0 Al
Al8 1.0000000000 0.8812964791 0.8812964791 0.8019369153  Biso 1.0 Al
Y9 1.0000000000 0.3477115577 0.3477115577 0.0000000000  Biso 1.0 Y
Y10 1.0000000000 0.6522884423 0.6522884423 0.0000000000  Biso 1.0 Y
Y11 1.0000000000 0.1522884423 0.8477115577 0.5000000000  Biso 1.0 Y
Y12 1.0000000000 0.8477115577 0.1522884423 0.5000000000  Biso 1.0 Y
Y13 1.0000000000 0.2005444277 0.7994555723 0.0000000000  Biso 1.0 Y
Y14 1.0000000000 0.7994555723 0.2005444277 0.0000000000  Biso 1.0 Y
Y15 1.0000000000 0.7005444277 0.7005444277 0.5000000000  Biso 1.0 Y
Y16 1.0000000000 0.2994555723 0.2994555723 0.5000000000  Biso 1.0 Y
Y17 1.0000000000 0.0000000000 0.5000000000 0.2500000000  Biso 1.0 Y
Y18 1.0000000000 0.0000000000 0.5000000000 0.7500000000  Biso 1.0 Y
Y19 1.0000000000 0.5000000000 0.0000000000 0.2500000000  Biso 1.0 Y
Y20 1.0000000000 0.5000000000 0.0000000000 0.7500000000  Biso 1.0 Y
