# AFLOW.org Repositories
# Al2Zr1   [HEX,HEX,hP12] (STD_PRIM doi:10
data_Al2Zr1
_pd_phase_name Al2Zr1
_cell_length_a  5.3039348256
_cell_length_b  5.3039348256
_cell_length_c  8.7727524148
_cell_angle_alpha  90.0000000000
_cell_angle_beta  90.0000000000
_cell_angle_gamma  120.0000000000
_symmetry_space_group_name_H-M  'P1'
_symmetry_Int_Tables_Number  1
loop_
_symmetry_equiv_pos_site_id
_symmetry_equiv_pos_as_xyz
  1  x,y,z
loop_
 _atom_site_label
 _atom_site_occupancy
 _atom_site_fract_x
 _atom_site_fract_y
 _atom_site_fract_z
 _atom_site_thermal_displace_type
 _atom_site_B_iso_or_equiv
 _atom_site_type_symbol
Al1 1.0000000000 0.0000000000 0.0000000000 0.0000000000  Biso 1.0 Al
Al2 1.0000000000 0.0000000000 0.0000000000 0.5000000000  Biso 1.0 Al
Al3 1.0000000000 0.6582197781 0.8291154942 0.2500000000  Biso 1.0 Al
Al4 1.0000000000 0.1708957161 0.8291154942 0.2500000000  Biso 1.0 Al
Al5 1.0000000000 0.1708935544 0.3417871088 0.2500000000  Biso 1.0 Al
Al6 1.0000000000 0.3417802219 0.1708845058 0.7500000000  Biso 1.0 Al
Al7 1.0000000000 0.8291042839 0.1708845058 0.7500000000  Biso 1.0 Al
Al8 1.0000000000 0.8291064456 0.6582128912 0.7500000000  Biso 1.0 Al
Zr9 1.0000000000 0.6666676484 0.3333352967 0.0642752300  Biso 1.0 Zr
Zr10 1.0000000000 0.3333323516 0.6666647033 0.5642752300  Biso 1.0 Zr
Zr11 1.0000000000 0.3333323516 0.6666647033 0.9357247700  Biso 1.0 Zr
Zr12 1.0000000000 0.6666676484 0.3333352967 0.4357247700  Biso 1.0 Zr
