# AFLOW.org Repositories
# Al2Zr1   [HEX,HEX,hP12] (STD_PRIM doi:10
data_Al2Zr1
_pd_phase_name Al2Zr1
_cell_length_a  5.3042689862
_cell_length_b  5.3042689862
_cell_length_c  8.7732731912
_cell_angle_alpha  90.0000000000
_cell_angle_beta  90.0000000000
_cell_angle_gamma  120.0000000000
_symmetry_space_group_name_H-M  'P1'
_symmetry_Int_Tables_Number  1
loop_
_symmetry_equiv_pos_site_id
_symmetry_equiv_pos_as_xyz
  1  x,y,z
loop_
 _atom_site_label
 _atom_site_occupancy
 _atom_site_fract_x
 _atom_site_fract_y
 _atom_site_fract_z
 _atom_site_thermal_displace_type
 _atom_site_B_iso_or_equiv
 _atom_site_type_symbol
Al1 1.0000000000 0.0000000000 0.0000000000 0.0000000000  Biso 1.0 Al
Al2 1.0000000000 0.0000000000 0.0000000000 0.5000000000  Biso 1.0 Al
Al3 1.0000000000 0.8290244951 0.1709872406 0.2500000000  Biso 1.0 Al
Al4 1.0000000000 0.8290244951 0.6580372545 0.2500000000  Biso 1.0 Al
Al5 1.0000000000 0.3419698620 0.1709849310 0.2500000000  Biso 1.0 Al
Al6 1.0000000000 0.1709755049 0.8290127594 0.7500000000  Biso 1.0 Al
Al7 1.0000000000 0.1709755049 0.3419627455 0.7500000000  Biso 1.0 Al
Al8 1.0000000000 0.6580301380 0.8290150690 0.7500000000  Biso 1.0 Al
Zr9 1.0000000000 0.3333367695 0.6666683847 0.0642725419  Biso 1.0 Zr
Zr10 1.0000000000 0.6666632305 0.3333316153 0.5642725419  Biso 1.0 Zr
Zr11 1.0000000000 0.6666632305 0.3333316153 0.9357274581  Biso 1.0 Zr
Zr12 1.0000000000 0.3333367695 0.6666683847 0.4357274581  Biso 1.0 Zr
