# AFLOW.org Repositories
# Al2Zr3   [TET,TET,tP20] (STD_PRIM doi:10
data_Al2Zr3
_pd_phase_name Al2Zr3
_cell_length_a  7.6685025508
_cell_length_b  7.6685025508
_cell_length_c  6.9883698404
_cell_angle_alpha  90.0000000000
_cell_angle_beta  90.0000000000
_cell_angle_gamma  90.0000000000
_symmetry_space_group_name_H-M  'P1'
_symmetry_Int_Tables_Number  1
loop_
_symmetry_equiv_pos_site_id
_symmetry_equiv_pos_as_xyz
  1  x,y,z
loop_
 _atom_site_label
 _atom_site_occupancy
 _atom_site_fract_x
 _atom_site_fract_y
 _atom_site_fract_z
 _atom_site_thermal_displace_type
 _atom_site_B_iso_or_equiv
 _atom_site_type_symbol
Al1 1.0000000000 0.1210713171 0.1210713171 0.2128857933  Biso 1.0 Al
Al2 1.0000000000 0.8789286829 0.8789286829 0.2128857933  Biso 1.0 Al
Al3 1.0000000000 0.3789286829 0.6210713171 0.7128857933  Biso 1.0 Al
Al4 1.0000000000 0.6210713171 0.3789286829 0.7128857933  Biso 1.0 Al
Al5 1.0000000000 0.3789286829 0.6210713171 0.2871142067  Biso 1.0 Al
Al6 1.0000000000 0.6210713171 0.3789286829 0.2871142067  Biso 1.0 Al
Al7 1.0000000000 0.1210713171 0.1210713171 0.7871142067  Biso 1.0 Al
Al8 1.0000000000 0.8789286829 0.8789286829 0.7871142067  Biso 1.0 Al
Zr9 1.0000000000 0.0000000000 0.5000000000 0.2500000000  Biso 1.0 Zr
Zr10 1.0000000000 0.0000000000 0.5000000000 0.7500000000  Biso 1.0 Zr
Zr11 1.0000000000 0.5000000000 0.0000000000 0.2500000000  Biso 1.0 Zr
Zr12 1.0000000000 0.5000000000 0.0000000000 0.7500000000  Biso 1.0 Zr
Zr13 1.0000000000 0.3432234215 0.3432234215 0.0000000000  Biso 1.0 Zr
Zr14 1.0000000000 0.6567765785 0.6567765785 0.0000000000  Biso 1.0 Zr
Zr15 1.0000000000 0.1567765785 0.8432234215 0.5000000000  Biso 1.0 Zr
Zr16 1.0000000000 0.8432234215 0.1567765785 0.5000000000  Biso 1.0 Zr
Zr17 1.0000000000 0.1994378247 0.8005621753 0.0000000000  Biso 1.0 Zr
Zr18 1.0000000000 0.8005621753 0.1994378247 0.0000000000  Biso 1.0 Zr
Zr19 1.0000000000 0.6994378247 0.6994378247 0.5000000000  Biso 1.0 Zr
Zr20 1.0000000000 0.3005621753 0.3005621753 0.5000000000  Biso 1.0 Zr
