# AFLOW.org Repositories
# Al3C4Zr2   [HEX,HEX,hP18] (STD_PRIM doi:
data_Al3C4Zr2
_pd_phase_name Al3C4Zr2
_cell_length_a  3.3636489963
_cell_length_b  3.3636489963
_cell_length_c  22.3295329070
_cell_angle_alpha  90.0000000000
_cell_angle_beta  90.0000000000
_cell_angle_gamma  120.0000000000
_symmetry_space_group_name_H-M  'P1'
_symmetry_Int_Tables_Number  1
loop_
_symmetry_equiv_pos_site_id
_symmetry_equiv_pos_as_xyz
  1  x,y,z
loop_
 _atom_site_label
 _atom_site_occupancy
 _atom_site_fract_x
 _atom_site_fract_y
 _atom_site_fract_z
 _atom_site_thermal_displace_type
 _atom_site_B_iso_or_equiv
 _atom_site_type_symbol
Al1 1.0000000000 0.6666724432 0.3333448864 0.2471135440  Biso 1.0 Al
Al2 1.0000000000 0.3333275568 0.6666551136 0.7471135440  Biso 1.0 Al
Al3 1.0000000000 0.0000000000 0.0000000000 0.1569130128  Biso 1.0 Al
Al4 1.0000000000 0.0000000000 0.0000000000 0.6569130128  Biso 1.0 Al
Al5 1.0000000000 0.0000000000 0.0000000000 0.3379410349  Biso 1.0 Al
Al6 1.0000000000 0.0000000000 0.0000000000 0.8379410349  Biso 1.0 Al
C7 1.0000000000 0.6666713156 0.3333426313 0.1263989876  Biso 1.0 C
C8 1.0000000000 0.3333286844 0.6666573687 0.6263989876  Biso 1.0 C
C9 1.0000000000 0.6666710543 0.3333421087 0.3687352504  Biso 1.0 C
C10 1.0000000000 0.3333289457 0.6666578913 0.8687352504  Biso 1.0 C
C11 1.0000000000 0.0000000000 0.0000000000 0.9975182910  Biso 1.0 C
C12 1.0000000000 0.0000000000 0.0000000000 0.4975182910  Biso 1.0 C
C13 1.0000000000 0.0000000000 0.0000000000 0.2474262459  Biso 1.0 C
C14 1.0000000000 0.0000000000 0.0000000000 0.7474262459  Biso 1.0 C
Zr15 1.0000000000 0.6666606966 0.3333213931 0.5561162615  Biso 1.0 Zr
Zr16 1.0000000000 0.3333393034 0.6666786069 0.0561162615  Biso 1.0 Zr
Zr17 1.0000000000 0.6666612296 0.3333224592 0.9388373718  Biso 1.0 Zr
Zr18 1.0000000000 0.3333387704 0.6666775408 0.4388373718  Biso 1.0 Zr
