# AFLOW.org Repositories
# Al3C3Sc1   [HEX,HEX,hP14] (STD_PRIM doi:
data_Al3C3Sc1
_pd_phase_name Al3C3Sc1
_cell_length_a  3.3700553646
_cell_length_b  3.3700553646
_cell_length_c  16.9086743980
_cell_angle_alpha  90.0000000000
_cell_angle_beta  90.0000000000
_cell_angle_gamma  120.0000000000
_symmetry_space_group_name_H-M  'P1'
_symmetry_Int_Tables_Number  1
loop_
_symmetry_equiv_pos_site_id
_symmetry_equiv_pos_as_xyz
  1  x,y,z
loop_
 _atom_site_label
 _atom_site_occupancy
 _atom_site_fract_x
 _atom_site_fract_y
 _atom_site_fract_z
 _atom_site_thermal_displace_type
 _atom_site_B_iso_or_equiv
 _atom_site_type_symbol
Al1 1.0000000000 0.3333140201 0.6666570100 0.1307641932  Biso 1.0 Al
Al2 1.0000000000 0.6666859799 0.3333429900 0.6307641932  Biso 1.0 Al
Al3 1.0000000000 0.3333538182 0.6666769091 0.3705524202  Biso 1.0 Al
Al4 1.0000000000 0.6666461818 0.3333230909 0.8705524202  Biso 1.0 Al
Al5 1.0000000000 0.3333091681 0.6666545840 0.7535416158  Biso 1.0 Al
Al6 1.0000000000 0.6666908319 0.3333454160 0.2535416158  Biso 1.0 Al
C7 1.0000000000 0.3333249213 0.6666624607 0.2504113169  Biso 1.0 C
C8 1.0000000000 0.6666750787 0.3333375393 0.7504113169  Biso 1.0 C
C9 1.0000000000 0.3333561999 0.6666780999 0.5869122286  Biso 1.0 C
C10 1.0000000000 0.6666438001 0.3333219001 0.0869122286  Biso 1.0 C
C11 1.0000000000 0.3333095802 0.6666547901 0.9110819351  Biso 1.0 C
C12 1.0000000000 0.6666904198 0.3333452099 0.4110819351  Biso 1.0 C
Sc13 1.0000000000 0.0000000000 0.0000000000 0.0000000000  Biso 1.0 Sc
Sc14 1.0000000000 0.0000000000 0.0000000000 0.5007362903  Biso 1.0 Sc
