# AFLOW.org Repositories
# Al3C3Er1   [HEX,HEX,hP14] (STD_PRIM doi:
data_Al3C3Er1
_pd_phase_name Al3C3Er1
_cell_length_a  3.4219334324
_cell_length_b  3.4219334324
_cell_length_c  17.2559181598
_cell_angle_alpha  90.0000000000
_cell_angle_beta  90.0000000000
_cell_angle_gamma  120.0000000000
_symmetry_space_group_name_H-M  'P1'
_symmetry_Int_Tables_Number  1
loop_
_symmetry_equiv_pos_site_id
_symmetry_equiv_pos_as_xyz
  1  x,y,z
loop_
 _atom_site_label
 _atom_site_occupancy
 _atom_site_fract_x
 _atom_site_fract_y
 _atom_site_fract_z
 _atom_site_thermal_displace_type
 _atom_site_B_iso_or_equiv
 _atom_site_type_symbol
Al1 1.0000000000 0.6666668701 0.3333337401 0.1329857006  Biso 1.0 Al
Al2 1.0000000000 0.3333331299 0.6666662599 0.6329857006  Biso 1.0 Al
Al3 1.0000000000 0.3333331299 0.6666662599 0.8670142994  Biso 1.0 Al
Al4 1.0000000000 0.6666668701 0.3333337401 0.3670142994  Biso 1.0 Al
Al5 1.0000000000 0.6666620469 0.3333240939 0.7500000000  Biso 1.0 Al
Al6 1.0000000000 0.3333379531 0.6666759061 0.2500000000  Biso 1.0 Al
C7 1.0000000000 0.6666633815 0.3333267630 0.5919230148  Biso 1.0 C
C8 1.0000000000 0.3333366185 0.6666732370 0.0919230148  Biso 1.0 C
C9 1.0000000000 0.3333366185 0.6666732370 0.4080769852  Biso 1.0 C
C10 1.0000000000 0.6666633815 0.3333267630 0.9080769852  Biso 1.0 C
C11 1.0000000000 0.6666681305 0.3333362610 0.2500000000  Biso 1.0 C
C12 1.0000000000 0.3333318695 0.6666637390 0.7500000000  Biso 1.0 C
Er13 1.0000000000 0.0000000000 0.0000000000 0.0000000000  Biso 1.0 Er
Er14 1.0000000000 0.0000000000 0.0000000000 0.5000000000  Biso 1.0 Er
