# AFLOW.org Repositories
# Al3C3Dy1   [HEX,HEX,hP14] (STD_PRIM doi:
data_Al3C3Dy1
_pd_phase_name Al3C3Dy1
_cell_length_a  3.4360609614
_cell_length_b  3.4360609614
_cell_length_c  17.3335652845
_cell_angle_alpha  90.0000000000
_cell_angle_beta  90.0000000000
_cell_angle_gamma  120.0000000000
_symmetry_space_group_name_H-M  'P1'
_symmetry_Int_Tables_Number  1
loop_
_symmetry_equiv_pos_site_id
_symmetry_equiv_pos_as_xyz
  1  x,y,z
loop_
 _atom_site_label
 _atom_site_occupancy
 _atom_site_fract_x
 _atom_site_fract_y
 _atom_site_fract_z
 _atom_site_thermal_displace_type
 _atom_site_B_iso_or_equiv
 _atom_site_type_symbol
Al1 1.0000000000 0.3333306026 0.6666693974 0.1336500050  Biso 1.0 Al
Al2 1.0000000000 0.6666693974 0.3333306026 0.6336500050  Biso 1.0 Al
Al3 1.0000000000 0.6666693974 0.3333306026 0.8663499950  Biso 1.0 Al
Al4 1.0000000000 0.3333306026 0.6666693974 0.3663499950  Biso 1.0 Al
Al5 1.0000000000 0.3333405498 0.6666594502 0.7500000000  Biso 1.0 Al
Al6 1.0000000000 0.6666594502 0.3333405498 0.2500000000  Biso 1.0 Al
C7 1.0000000000 0.3333335586 0.6666664414 0.5930364834  Biso 1.0 C
C8 1.0000000000 0.6666664414 0.3333335586 0.0930364834  Biso 1.0 C
C9 1.0000000000 0.6666664414 0.3333335586 0.4069635166  Biso 1.0 C
C10 1.0000000000 0.3333335586 0.6666664414 0.9069635166  Biso 1.0 C
C11 1.0000000000 0.3333363266 0.6666636734 0.2500000000  Biso 1.0 C
C12 1.0000000000 0.6666636734 0.3333363266 0.7500000000  Biso 1.0 C
Dy13 1.0000000000 0.0000000000 0.0000000000 0.0000000000  Biso 1.0 Dy
Dy14 1.0000000000 0.0000000000 0.0000000000 0.5000000000  Biso 1.0 Dy
