# AFLOW.org Repositories
# Al3C3Ho1   [HEX,HEX,hP14] (STD_PRIM doi:
data_Al3C3Ho1
_pd_phase_name Al3C3Ho1
_cell_length_a  3.4286896429
_cell_length_b  3.4286896429
_cell_length_c  17.2900764511
_cell_angle_alpha  90.0000000000
_cell_angle_beta  90.0000000000
_cell_angle_gamma  120.0000000000
_symmetry_space_group_name_H-M  'P1'
_symmetry_Int_Tables_Number  1
loop_
_symmetry_equiv_pos_site_id
_symmetry_equiv_pos_as_xyz
  1  x,y,z
loop_
 _atom_site_label
 _atom_site_occupancy
 _atom_site_fract_x
 _atom_site_fract_y
 _atom_site_fract_z
 _atom_site_thermal_displace_type
 _atom_site_B_iso_or_equiv
 _atom_site_type_symbol
Al1 1.0000000000 0.3333369724 0.6666684862 0.1333067498  Biso 1.0 Al
Al2 1.0000000000 0.6666630276 0.3333315138 0.6333067498  Biso 1.0 Al
Al3 1.0000000000 0.6666630276 0.3333315138 0.8666932502  Biso 1.0 Al
Al4 1.0000000000 0.3333369724 0.6666684862 0.3666932502  Biso 1.0 Al
Al5 1.0000000000 0.3333231872 0.6666615936 0.7500000000  Biso 1.0 Al
Al6 1.0000000000 0.6666768128 0.3333384064 0.2500000000  Biso 1.0 Al
C7 1.0000000000 0.3333310920 0.6666655460 0.5924189843  Biso 1.0 C
C8 1.0000000000 0.6666689080 0.3333344540 0.0924189843  Biso 1.0 C
C9 1.0000000000 0.6666689080 0.3333344540 0.4075810157  Biso 1.0 C
C10 1.0000000000 0.3333310920 0.6666655460 0.9075810157  Biso 1.0 C
C11 1.0000000000 0.3333323348 0.6666661674 0.2500000000  Biso 1.0 C
C12 1.0000000000 0.6666676652 0.3333338326 0.7500000000  Biso 1.0 C
Ho13 1.0000000000 0.0000000000 0.0000000000 0.0000000000  Biso 1.0 Ho
Ho14 1.0000000000 0.0000000000 0.0000000000 0.5000000000  Biso 1.0 Ho
