# AFLOW.org Repositories
# Al3C3Gd1   [HEX,HEX,hP14] (STD_PRIM doi:
data_Al3C3Gd1
_pd_phase_name Al3C3Gd1
_cell_length_a  3.4484513117
_cell_length_b  3.4484513117
_cell_length_c  17.4552286861
_cell_angle_alpha  90.0000000000
_cell_angle_beta  90.0000000000
_cell_angle_gamma  120.0000000000
_symmetry_space_group_name_H-M  'P1'
_symmetry_Int_Tables_Number  1
loop_
_symmetry_equiv_pos_site_id
_symmetry_equiv_pos_as_xyz
  1  x,y,z
loop_
 _atom_site_label
 _atom_site_occupancy
 _atom_site_fract_x
 _atom_site_fract_y
 _atom_site_fract_z
 _atom_site_thermal_displace_type
 _atom_site_B_iso_or_equiv
 _atom_site_type_symbol
Al1 1.0000000000 0.6666652977 0.3333305954 0.1345324492  Biso 1.0 Al
Al2 1.0000000000 0.3333347023 0.6666694046 0.6345324492  Biso 1.0 Al
Al3 1.0000000000 0.3333347023 0.6666694046 0.8654675508  Biso 1.0 Al
Al4 1.0000000000 0.6666652977 0.3333305954 0.3654675508  Biso 1.0 Al
Al5 1.0000000000 0.6666637839 0.3333275679 0.7500000000  Biso 1.0 Al
Al6 1.0000000000 0.3333362161 0.6666724321 0.2500000000  Biso 1.0 Al
C7 1.0000000000 0.6666609775 0.3333219551 0.5947467774  Biso 1.0 C
C8 1.0000000000 0.3333390225 0.6666780449 0.0947467774  Biso 1.0 C
C9 1.0000000000 0.3333390225 0.6666780449 0.4052532226  Biso 1.0 C
C10 1.0000000000 0.6666609775 0.3333219551 0.9052532226  Biso 1.0 C
C11 1.0000000000 0.6666686307 0.3333372614 0.2500000000  Biso 1.0 C
C12 1.0000000000 0.3333313693 0.6666627386 0.7500000000  Biso 1.0 C
Gd13 1.0000000000 0.0000000000 0.0000000000 0.0000000000  Biso 1.0 Gd
Gd14 1.0000000000 0.0000000000 0.0000000000 0.5000000000  Biso 1.0 Gd
