# AFLOW.org Repositories
# Al3Hf4   [HEX,HEX,hP7] (STD_PRIM doi:10.
data_Al3Hf4
_pd_phase_name Al3Hf4
_cell_length_a  5.3584992839
_cell_length_b  5.3584992839
_cell_length_c  5.4224395904
_cell_angle_alpha  90.0000000000
_cell_angle_beta  90.0000000000
_cell_angle_gamma  120.0000000000
_symmetry_space_group_name_H-M  'P1'
_symmetry_Int_Tables_Number  1
loop_
_symmetry_equiv_pos_site_id
_symmetry_equiv_pos_as_xyz
  1  x,y,z
loop_
 _atom_site_label
 _atom_site_occupancy
 _atom_site_fract_x
 _atom_site_fract_y
 _atom_site_fract_z
 _atom_site_thermal_displace_type
 _atom_site_B_iso_or_equiv
 _atom_site_type_symbol
Al1 1.0000000000 0.5000000000 0.0000000000 0.0000000000  Biso 1.0 Al
Al2 1.0000000000 0.0000000000 0.5000000000 0.0000000000  Biso 1.0 Al
Al3 1.0000000000 0.5000000000 0.5000000000 0.0000000000  Biso 1.0 Al
Hf4 1.0000000000 0.0000000000 0.0000000000 0.2591798548  Biso 1.0 Hf
Hf5 1.0000000000 0.0000000000 0.0000000000 0.7408201452  Biso 1.0 Hf
Hf6 1.0000000000 0.3333136829 0.6666863171 0.5000000000  Biso 1.0 Hf
Hf7 1.0000000000 0.6666863171 0.3333136829 0.5000000000  Biso 1.0 Hf
