# AFLOW.org Repositories
# Al3Hf1   [BCT,BCT2,tI16] (STD_PRIM doi:1
data_Al3Hf1
_pd_phase_name Al3Hf1
_cell_length_a  9.0508695565
_cell_length_b  9.0508695565
_cell_length_c  9.0508695565
_cell_angle_alpha  154.4686886983
_cell_angle_beta  154.4686886983
_cell_angle_gamma  36.4187302342
_symmetry_space_group_name_H-M  'P1'
_symmetry_Int_Tables_Number  1
loop_
_symmetry_equiv_pos_site_id
_symmetry_equiv_pos_as_xyz
  1  x,y,z
loop_
 _atom_site_label
 _atom_site_occupancy
 _atom_site_fract_x
 _atom_site_fract_y
 _atom_site_fract_z
 _atom_site_thermal_displace_type
 _atom_site_B_iso_or_equiv
 _atom_site_type_symbol
Al1 1.0000000000 0.0000000000 0.5000000000 0.5000000000  Biso 1.0 Al
Al2 1.0000000000 0.5000000000 0.0000000000 0.5000000000  Biso 1.0 Al
Al3 1.0000000000 0.2500000000 0.7500000000 0.5000000000  Biso 1.0 Al
Al4 1.0000000000 0.7500000000 0.2500000000 0.5000000000  Biso 1.0 Al
Al5 1.0000000000 0.3753955908 0.3753955908 0.0000000000  Biso 1.0 Al
Al6 1.0000000000 0.6246044092 0.6246044092 0.0000000000  Biso 1.0 Al
Hf7 1.0000000000 0.1194560709 0.1194560709 0.0000000000  Biso 1.0 Hf
Hf8 1.0000000000 0.8805439291 0.8805439291 0.0000000000  Biso 1.0 Hf
