# AFLOW.org Repositories
# Al3Ir1   [CUB,CUB,cP32] (STD_PRIM doi:10
data_Al3Ir1
_pd_phase_name Al3Ir1
_cell_length_a  7.7807503684
_cell_length_b  7.7807503684
_cell_length_c  7.7807503684
_cell_angle_alpha  90.0000000000
_cell_angle_beta  90.0000000000
_cell_angle_gamma  90.0000000000
_symmetry_space_group_name_H-M  'P1'
_symmetry_Int_Tables_Number  1
loop_
_symmetry_equiv_pos_site_id
_symmetry_equiv_pos_as_xyz
  1  x,y,z
loop_
 _atom_site_label
 _atom_site_occupancy
 _atom_site_fract_x
 _atom_site_fract_y
 _atom_site_fract_z
 _atom_site_thermal_displace_type
 _atom_site_B_iso_or_equiv
 _atom_site_type_symbol
Al1 1.0000000000 0.0000000000 0.8363224948 0.2993908726  Biso 1.0 Al
Al2 1.0000000000 0.0000000000 0.1636775052 0.2993908726  Biso 1.0 Al
Al3 1.0000000000 0.0000000000 0.8363224948 0.7006091274  Biso 1.0 Al
Al4 1.0000000000 0.0000000000 0.1636775052 0.7006091274  Biso 1.0 Al
Al5 1.0000000000 0.7006091274 0.0000000000 0.1636775052  Biso 1.0 Al
Al6 1.0000000000 0.7006091274 0.0000000000 0.8363224948  Biso 1.0 Al
Al7 1.0000000000 0.2993908726 0.0000000000 0.1636775052  Biso 1.0 Al
Al8 1.0000000000 0.2993908726 0.0000000000 0.8363224948  Biso 1.0 Al
Al9 1.0000000000 0.8363224948 0.7006091274 0.0000000000  Biso 1.0 Al
Al10 1.0000000000 0.1636775052 0.7006091274 0.0000000000  Biso 1.0 Al
Al11 1.0000000000 0.8363224948 0.2993908726 0.0000000000  Biso 1.0 Al
Al12 1.0000000000 0.1636775052 0.2993908726 0.0000000000  Biso 1.0 Al
Al13 1.0000000000 0.3363224948 0.5000000000 0.2006091274  Biso 1.0 Al
Al14 1.0000000000 0.6636775052 0.5000000000 0.2006091274  Biso 1.0 Al
Al15 1.0000000000 0.3363224948 0.5000000000 0.7993908726  Biso 1.0 Al
Al16 1.0000000000 0.6636775052 0.5000000000 0.7993908726  Biso 1.0 Al
Al17 1.0000000000 0.5000000000 0.2006091274 0.3363224948  Biso 1.0 Al
Al18 1.0000000000 0.5000000000 0.2006091274 0.6636775052  Biso 1.0 Al
Al19 1.0000000000 0.5000000000 0.7993908726 0.3363224948  Biso 1.0 Al
Al20 1.0000000000 0.5000000000 0.7993908726 0.6636775052  Biso 1.0 Al
Al21 1.0000000000 0.2006091274 0.3363224948 0.5000000000  Biso 1.0 Al
Al22 1.0000000000 0.2006091274 0.6636775052 0.5000000000  Biso 1.0 Al
Al23 1.0000000000 0.7993908726 0.3363224948 0.5000000000  Biso 1.0 Al
Al24 1.0000000000 0.7993908726 0.6636775052 0.5000000000  Biso 1.0 Al
Ir25 1.0000000000 0.0000000000 0.0000000000 0.0000000000  Biso 1.0 Ir
Ir26 1.0000000000 0.5000000000 0.5000000000 0.5000000000  Biso 1.0 Ir
Ir27 1.0000000000 0.7500000000 0.0000000000 0.5000000000  Biso 1.0 Ir
Ir28 1.0000000000 0.2500000000 0.0000000000 0.5000000000  Biso 1.0 Ir
Ir29 1.0000000000 0.5000000000 0.7500000000 0.0000000000  Biso 1.0 Ir
Ir30 1.0000000000 0.5000000000 0.2500000000 0.0000000000  Biso 1.0 Ir
Ir31 1.0000000000 0.0000000000 0.5000000000 0.2500000000  Biso 1.0 Ir
Ir32 1.0000000000 0.0000000000 0.5000000000 0.7500000000  Biso 1.0 Ir
