# AFLOW.org Repositories
# Al3Ni2   [HEX,HEX,hP5] (STD_PRIM doi:10.
data_Al3Ni2
_pd_phase_name Al3Ni2
_cell_length_a  4.0159724115
_cell_length_b  4.0159724115
_cell_length_c  4.8795709239
_cell_angle_alpha  90.0000000000
_cell_angle_beta  90.0000000000
_cell_angle_gamma  120.0000000000
_symmetry_space_group_name_H-M  'P1'
_symmetry_Int_Tables_Number  1
loop_
_symmetry_equiv_pos_site_id
_symmetry_equiv_pos_as_xyz
  1  x,y,z
loop_
 _atom_site_label
 _atom_site_occupancy
 _atom_site_fract_x
 _atom_site_fract_y
 _atom_site_fract_z
 _atom_site_thermal_displace_type
 _atom_site_B_iso_or_equiv
 _atom_site_type_symbol
Al1 1.0000000000 0.0000000000 0.0000000000 0.0000000000  Biso 1.0 Al
Al2 1.0000000000 0.3333843300 0.6666921650 0.6494392972  Biso 1.0 Al
Al3 1.0000000000 0.6666156700 0.3333078350 0.3505607028  Biso 1.0 Al
Ni4 1.0000000000 0.3333850559 0.6666925280 0.1482575567  Biso 1.0 Ni
Ni5 1.0000000000 0.6666149441 0.3333074720 0.8517424433  Biso 1.0 Ni
