# AFLOW.org Repositories
# Al3Os2   [BCT,BCT2,tI10] (STD_PRIM doi:1
data_Al3Os2
_pd_phase_name Al3Os2
_cell_length_a  7.4547357455
_cell_length_b  7.4547357455
_cell_length_c  7.4547357455
_cell_angle_alpha  155.8286784144
_cell_angle_beta  155.8286784144
_cell_angle_gamma  34.4469404378
_symmetry_space_group_name_H-M  'P1'
_symmetry_Int_Tables_Number  1
loop_
_symmetry_equiv_pos_site_id
_symmetry_equiv_pos_as_xyz
  1  x,y,z
loop_
 _atom_site_label
 _atom_site_occupancy
 _atom_site_fract_x
 _atom_site_fract_y
 _atom_site_fract_z
 _atom_site_thermal_displace_type
 _atom_site_B_iso_or_equiv
 _atom_site_type_symbol
Al1 1.0000000000 0.0000000000 0.0000000000 0.0000000000  Biso 1.0 Al
Al2 1.0000000000 0.8046430350 0.8046430350 0.0000000000  Biso 1.0 Al
Al3 1.0000000000 0.1953569650 0.1953569650 0.0000000000  Biso 1.0 Al
Os4 1.0000000000 0.6067230566 0.6067230566 0.0000000000  Biso 1.0 Os
Os5 1.0000000000 0.3932769434 0.3932769434 0.0000000000  Biso 1.0 Os
