# AFLOW.org Repositories
# Al3Zr4   [HEX,HEX,hP7] (STD_PRIM doi:10.
data_Al3Zr4
_pd_phase_name Al3Zr4
_cell_length_a  5.4504086965
_cell_length_b  5.4504086965
_cell_length_c  5.4089315470
_cell_angle_alpha  90.0000000000
_cell_angle_beta  90.0000000000
_cell_angle_gamma  120.0000000000
_symmetry_space_group_name_H-M  'P1'
_symmetry_Int_Tables_Number  1
loop_
_symmetry_equiv_pos_site_id
_symmetry_equiv_pos_as_xyz
  1  x,y,z
loop_
 _atom_site_label
 _atom_site_occupancy
 _atom_site_fract_x
 _atom_site_fract_y
 _atom_site_fract_z
 _atom_site_thermal_displace_type
 _atom_site_B_iso_or_equiv
 _atom_site_type_symbol
Al1 1.0000000000 0.1667021600 0.8333758674 0.0000000000  Biso 1.0 Al
Al2 1.0000000000 0.1666355754 0.3333291600 0.0000000000  Biso 1.0 Al
Al3 1.0000000000 0.6666737198 0.8333178526 0.0000000000  Biso 1.0 Al
Zr4 1.0000000000 0.6666843768 0.3333687868 0.2591757728  Biso 1.0 Zr
Zr5 1.0000000000 0.6666843768 0.3333687868 0.7408242272  Biso 1.0 Zr
Zr6 1.0000000000 0.3333186728 0.6666372807 0.5000000000  Biso 1.0 Zr
Zr7 1.0000000000 0.0000000000 0.0000000000 0.5000000000  Biso 1.0 Zr
