# AFLOW.org Repositories
# Al4C4Th1   [BCT,BCT1,tI18] (STD_PRIM doi
data_Al4C4Th1
_pd_phase_name Al4C4Th1
_cell_length_a  6.1193196669
_cell_length_b  6.1193196669
_cell_length_c  6.1193196669
_cell_angle_alpha  94.4156504852
_cell_angle_beta  94.4156504852
_cell_angle_gamma  147.7810906408
_symmetry_space_group_name_H-M  'P1'
_symmetry_Int_Tables_Number  1
loop_
_symmetry_equiv_pos_site_id
_symmetry_equiv_pos_as_xyz
  1  x,y,z
loop_
 _atom_site_label
 _atom_site_occupancy
 _atom_site_fract_x
 _atom_site_fract_y
 _atom_site_fract_z
 _atom_site_thermal_displace_type
 _atom_site_B_iso_or_equiv
 _atom_site_type_symbol
Al1 1.0000000000 0.3590893641 0.8207652416 0.1798546057  Biso 1.0 Al
Al2 1.0000000000 0.6409106359 0.1792347584 0.8201453943  Biso 1.0 Al
Al3 1.0000000000 0.1792347584 0.3590893641 0.5383241225  Biso 1.0 Al
Al4 1.0000000000 0.8207652416 0.6409106359 0.4616758775  Biso 1.0 Al
C5 1.0000000000 0.7567462206 0.4092168951 0.1659631157  Biso 1.0 C
C6 1.0000000000 0.2432537794 0.5907831049 0.8340368843  Biso 1.0 C
C7 1.0000000000 0.5907831049 0.7567462206 0.3475293255  Biso 1.0 C
C8 1.0000000000 0.4092168951 0.2432537794 0.6524706745  Biso 1.0 C
Th9 1.0000000000 0.0000000000 0.0000000000 0.0000000000  Biso 1.0 Th
