# AFLOW.org Repositories
# Al4In3Sr11   [FCC,FCC,cF144] (STD_PRIM d
data_Al4In3Sr11
_pd_phase_name Al4In3Sr11
_cell_length_a  12.4197785732
_cell_length_b  12.4197785732
_cell_length_c  12.4197785732
_cell_angle_alpha  60.0000000000
_cell_angle_beta  60.0000000000
_cell_angle_gamma  60.0000000000
_symmetry_space_group_name_H-M  'P1'
_symmetry_Int_Tables_Number  1
loop_
_symmetry_equiv_pos_site_id
_symmetry_equiv_pos_as_xyz
  1  x,y,z
loop_
 _atom_site_label
 _atom_site_occupancy
 _atom_site_fract_x
 _atom_site_fract_y
 _atom_site_fract_z
 _atom_site_thermal_displace_type
 _atom_site_B_iso_or_equiv
 _atom_site_type_symbol
Al1 1.0000000000 0.3053033769 0.3053033769 0.3053033769  Biso 1.0 Al
Al2 1.0000000000 0.3053033769 0.3053033769 0.0840898692  Biso 1.0 Al
Al3 1.0000000000 0.3053033769 0.0840898692 0.3053033769  Biso 1.0 Al
Al4 1.0000000000 0.0840898692 0.3053033769 0.3053033769  Biso 1.0 Al
Al5 1.0000000000 0.6946966231 0.6946966231 0.9159101308  Biso 1.0 Al
Al6 1.0000000000 0.6946966231 0.6946966231 0.6946966231  Biso 1.0 Al
Al7 1.0000000000 0.6946966231 0.9159101308 0.6946966231  Biso 1.0 Al
Al8 1.0000000000 0.9159101308 0.6946966231 0.6946966231  Biso 1.0 Al
In9 1.0000000000 0.7810712963 0.2189287037 0.2189287037  Biso 1.0 In
In10 1.0000000000 0.2189287037 0.7810712963 0.7810712963  Biso 1.0 In
In11 1.0000000000 0.2189287037 0.7810712963 0.2189287037  Biso 1.0 In
In12 1.0000000000 0.7810712963 0.2189287037 0.7810712963  Biso 1.0 In
In13 1.0000000000 0.2189287037 0.2189287037 0.7810712963  Biso 1.0 In
In14 1.0000000000 0.7810712963 0.7810712963 0.2189287037  Biso 1.0 In
Sr15 1.0000000000 0.5000000000 0.5000000000 0.5000000000  Biso 1.0 Sr
Sr16 1.0000000000 0.0000000000 0.0000000000 0.0000000000  Biso 1.0 Sr
Sr17 1.0000000000 0.1317070283 0.1317070283 0.1317070283  Biso 1.0 Sr
Sr18 1.0000000000 0.1317070283 0.1317070283 0.6048789152  Biso 1.0 Sr
Sr19 1.0000000000 0.1317070283 0.6048789152 0.1317070283  Biso 1.0 Sr
Sr20 1.0000000000 0.6048789152 0.1317070283 0.1317070283  Biso 1.0 Sr
Sr21 1.0000000000 0.8682929717 0.8682929717 0.3951210848  Biso 1.0 Sr
Sr22 1.0000000000 0.8682929717 0.8682929717 0.8682929717  Biso 1.0 Sr
Sr23 1.0000000000 0.8682929717 0.3951210848 0.8682929717  Biso 1.0 Sr
Sr24 1.0000000000 0.3951210848 0.8682929717 0.8682929717  Biso 1.0 Sr
Sr25 1.0000000000 0.8372458931 0.5000000000 0.5000000000  Biso 1.0 Sr
Sr26 1.0000000000 0.5000000000 0.8372458931 0.1627541069  Biso 1.0 Sr
Sr27 1.0000000000 0.5000000000 0.1627541069 0.8372458931  Biso 1.0 Sr
Sr28 1.0000000000 0.1627541069 0.5000000000 0.5000000000  Biso 1.0 Sr
Sr29 1.0000000000 0.5000000000 0.8372458931 0.5000000000  Biso 1.0 Sr
Sr30 1.0000000000 0.1627541069 0.5000000000 0.8372458931  Biso 1.0 Sr
Sr31 1.0000000000 0.8372458931 0.5000000000 0.1627541069  Biso 1.0 Sr
Sr32 1.0000000000 0.5000000000 0.1627541069 0.5000000000  Biso 1.0 Sr
Sr33 1.0000000000 0.5000000000 0.5000000000 0.8372458931  Biso 1.0 Sr
Sr34 1.0000000000 0.8372458931 0.1627541069 0.5000000000  Biso 1.0 Sr
Sr35 1.0000000000 0.1627541069 0.8372458931 0.5000000000  Biso 1.0 Sr
Sr36 1.0000000000 0.5000000000 0.5000000000 0.1627541069  Biso 1.0 Sr
