# AFLOW.org Repositories
# Al5C3N1   [HEX,HEX,hP18] (STD_PRIM doi:1
data_Al5C3N1
_pd_phase_name Al5C3N1
_cell_length_a  3.3076806427
_cell_length_b  3.3076806427
_cell_length_c  21.8371591586
_cell_angle_alpha  90.0000000000
_cell_angle_beta  90.0000000000
_cell_angle_gamma  120.0000000000
_symmetry_space_group_name_H-M  'P1'
_symmetry_Int_Tables_Number  1
loop_
_symmetry_equiv_pos_site_id
_symmetry_equiv_pos_as_xyz
  1  x,y,z
loop_
 _atom_site_label
 _atom_site_occupancy
 _atom_site_fract_x
 _atom_site_fract_y
 _atom_site_fract_z
 _atom_site_thermal_displace_type
 _atom_site_B_iso_or_equiv
 _atom_site_type_symbol
Al1 1.0000000000 0.3333303613 0.6666696387 0.0446099350  Biso 1.0 Al
Al2 1.0000000000 0.6666696387 0.3333303613 0.5446099350  Biso 1.0 Al
Al3 1.0000000000 0.0000000000 0.0000000000 0.1590363260  Biso 1.0 Al
Al4 1.0000000000 0.0000000000 0.0000000000 0.6590363260  Biso 1.0 Al
Al5 1.0000000000 0.3333184107 0.6666815893 0.2625486108  Biso 1.0 Al
Al6 1.0000000000 0.6666815893 0.3333184107 0.7625486108  Biso 1.0 Al
Al7 1.0000000000 0.0000000000 0.0000000000 0.3476216785  Biso 1.0 Al
Al8 1.0000000000 0.0000000000 0.0000000000 0.8476216785  Biso 1.0 Al
Al9 1.0000000000 0.3333293975 0.6666706025 0.4528490294  Biso 1.0 Al
Al10 1.0000000000 0.6666706025 0.3333293975 0.9528490294  Biso 1.0 Al
C11 1.0000000000 0.0000000000 0.0000000000 0.0021008985  Biso 1.0 C
C12 1.0000000000 0.0000000000 0.0000000000 0.5021008985  Biso 1.0 C
C13 1.0000000000 0.0000000000 0.0000000000 0.2488525305  Biso 1.0 C
C14 1.0000000000 0.0000000000 0.0000000000 0.7488525305  Biso 1.0 C
C15 1.0000000000 0.3333185915 0.6666814085 0.3657950765  Biso 1.0 C
C16 1.0000000000 0.6666814085 0.3333185915 0.8657950765  Biso 1.0 C
N17 1.0000000000 0.3333196337 0.6666803663 0.1295859148  Biso 1.0 N
N18 1.0000000000 0.6666803663 0.3333196337 0.6295859148  Biso 1.0 N
