# AFLOW.org Repositories
# Al6Re1   [ORCC,ORCC,oS28] (STD_PRIM doi:
data_Al6Re1
_pd_phase_name Al6Re1
_cell_length_a  5.0549085810
_cell_length_b  5.0549085810
_cell_length_c  9.0704804165
_cell_angle_alpha  90.0000000000
_cell_angle_beta  90.0000000000
_cell_angle_gamma  98.1547661816
_symmetry_space_group_name_H-M  'P1'
_symmetry_Int_Tables_Number  1
loop_
_symmetry_equiv_pos_site_id
_symmetry_equiv_pos_as_xyz
  1  x,y,z
loop_
 _atom_site_label
 _atom_site_occupancy
 _atom_site_fract_x
 _atom_site_fract_y
 _atom_site_fract_z
 _atom_site_thermal_displace_type
 _atom_site_B_iso_or_equiv
 _atom_site_type_symbol
Al1 1.0000000000 0.6756502957 0.3243497043 0.0000000000  Biso 1.0 Al
Al2 1.0000000000 0.3243497043 0.6756502957 0.5000000000  Biso 1.0 Al
Al3 1.0000000000 0.3243497043 0.6756502957 0.0000000000  Biso 1.0 Al
Al4 1.0000000000 0.6756502957 0.3243497043 0.5000000000  Biso 1.0 Al
Al5 1.0000000000 0.1309500867 0.1309500867 0.3994705613  Biso 1.0 Al
Al6 1.0000000000 0.8690499133 0.8690499133 0.8994705613  Biso 1.0 Al
Al7 1.0000000000 0.1309500867 0.1309500867 0.1005294387  Biso 1.0 Al
Al8 1.0000000000 0.8690499133 0.8690499133 0.6005294387  Biso 1.0 Al
Al9 1.0000000000 0.0282574038 0.3883121963 0.7500000000  Biso 1.0 Al
Al10 1.0000000000 0.9717425962 0.6116878037 0.2500000000  Biso 1.0 Al
Al11 1.0000000000 0.3883121963 0.0282574038 0.7500000000  Biso 1.0 Al
Al12 1.0000000000 0.6116878037 0.9717425962 0.2500000000  Biso 1.0 Al
Re13 1.0000000000 0.5439785388 0.5439785388 0.7500000000  Biso 1.0 Re
Re14 1.0000000000 0.4560214612 0.4560214612 0.2500000000  Biso 1.0 Re
