# AFLOW.org Repositories
# Al6Tc1   [ORCC,ORCC,oS28] (STD_PRIM doi:
data_Al6Tc1
_pd_phase_name Al6Tc1
_cell_length_a  5.0423458512
_cell_length_b  5.0423458512
_cell_length_c  9.0226871904
_cell_angle_alpha  90.0000000000
_cell_angle_beta  90.0000000000
_cell_angle_gamma  98.3067561913
_symmetry_space_group_name_H-M  'P1'
_symmetry_Int_Tables_Number  1
loop_
_symmetry_equiv_pos_site_id
_symmetry_equiv_pos_as_xyz
  1  x,y,z
loop_
 _atom_site_label
 _atom_site_occupancy
 _atom_site_fract_x
 _atom_site_fract_y
 _atom_site_fract_z
 _atom_site_thermal_displace_type
 _atom_site_B_iso_or_equiv
 _atom_site_type_symbol
Al1 1.0000000000 0.6760641885 0.3239358115 0.0000000000  Biso 1.0 Al
Al2 1.0000000000 0.3239358115 0.6760641885 0.5000000000  Biso 1.0 Al
Al3 1.0000000000 0.3239358115 0.6760641885 0.0000000000  Biso 1.0 Al
Al4 1.0000000000 0.6760641885 0.3239358115 0.5000000000  Biso 1.0 Al
Al5 1.0000000000 0.8666191507 0.8666191507 0.6003742538  Biso 1.0 Al
Al6 1.0000000000 0.1333808493 0.1333808493 0.1003742538  Biso 1.0 Al
Al7 1.0000000000 0.8666191507 0.8666191507 0.8996257462  Biso 1.0 Al
Al8 1.0000000000 0.1333808493 0.1333808493 0.3996257462  Biso 1.0 Al
Al9 1.0000000000 0.6101087061 0.9715500254 0.2500000000  Biso 1.0 Al
Al10 1.0000000000 0.3898912939 0.0284499746 0.7500000000  Biso 1.0 Al
Al11 1.0000000000 0.9715500254 0.6101087061 0.2500000000  Biso 1.0 Al
Al12 1.0000000000 0.0284499746 0.3898912939 0.7500000000  Biso 1.0 Al
Tc13 1.0000000000 0.4559434920 0.4559434920 0.2500000000  Biso 1.0 Tc
Tc14 1.0000000000 0.5440565080 0.5440565080 0.7500000000  Biso 1.0 Tc
