# AFLOW.org Repositories
# Al7Cu16Yb6   [FCC,FCC,cF116] (STD_PRIM d
data_Al7Cu16Yb6
_pd_phase_name Al7Cu16Yb6
_cell_length_a  8.8110823529
_cell_length_b  8.8110823529
_cell_length_c  8.8110823529
_cell_angle_alpha  60.0000000000
_cell_angle_beta  60.0000000000
_cell_angle_gamma  60.0000000000
_symmetry_space_group_name_H-M  'P1'
_symmetry_Int_Tables_Number  1
loop_
_symmetry_equiv_pos_site_id
_symmetry_equiv_pos_as_xyz
  1  x,y,z
loop_
 _atom_site_label
 _atom_site_occupancy
 _atom_site_fract_x
 _atom_site_fract_y
 _atom_site_fract_z
 _atom_site_thermal_displace_type
 _atom_site_B_iso_or_equiv
 _atom_site_type_symbol
Al1 1.0000000000 0.0000000000 0.0000000000 0.0000000000  Biso 1.0 Al
Al2 1.0000000000 0.5000000000 0.0000000000 0.0000000000  Biso 1.0 Al
Al3 1.0000000000 0.0000000000 0.5000000000 0.5000000000  Biso 1.0 Al
Al4 1.0000000000 0.0000000000 0.5000000000 0.0000000000  Biso 1.0 Al
Al5 1.0000000000 0.5000000000 0.0000000000 0.5000000000  Biso 1.0 Al
Al6 1.0000000000 0.0000000000 0.0000000000 0.5000000000  Biso 1.0 Al
Al7 1.0000000000 0.5000000000 0.5000000000 0.0000000000  Biso 1.0 Al
Cu8 1.0000000000 0.1223903160 0.1223903160 0.1223903160  Biso 1.0 Cu
Cu9 1.0000000000 0.1223903160 0.1223903160 0.6328290521  Biso 1.0 Cu
Cu10 1.0000000000 0.1223903160 0.6328290521 0.1223903160  Biso 1.0 Cu
Cu11 1.0000000000 0.6328290521 0.1223903160 0.1223903160  Biso 1.0 Cu
Cu12 1.0000000000 0.8776096840 0.8776096840 0.3671709479  Biso 1.0 Cu
Cu13 1.0000000000 0.8776096840 0.8776096840 0.8776096840  Biso 1.0 Cu
Cu14 1.0000000000 0.8776096840 0.3671709479 0.8776096840  Biso 1.0 Cu
Cu15 1.0000000000 0.3671709479 0.8776096840 0.8776096840  Biso 1.0 Cu
Cu16 1.0000000000 0.3257081005 0.3257081005 0.3257081005  Biso 1.0 Cu
Cu17 1.0000000000 0.3257081005 0.3257081005 0.0228756986  Biso 1.0 Cu
Cu18 1.0000000000 0.3257081005 0.0228756986 0.3257081005  Biso 1.0 Cu
Cu19 1.0000000000 0.0228756986 0.3257081005 0.3257081005  Biso 1.0 Cu
Cu20 1.0000000000 0.6742918995 0.6742918995 0.9771243014  Biso 1.0 Cu
Cu21 1.0000000000 0.6742918995 0.6742918995 0.6742918995  Biso 1.0 Cu
Cu22 1.0000000000 0.6742918995 0.9771243014 0.6742918995  Biso 1.0 Cu
Cu23 1.0000000000 0.9771243014 0.6742918995 0.6742918995  Biso 1.0 Cu
Yb24 1.0000000000 0.7118178054 0.2881821946 0.2881821946  Biso 1.0 Yb
Yb25 1.0000000000 0.2881821946 0.7118178054 0.7118178054  Biso 1.0 Yb
Yb26 1.0000000000 0.2881821946 0.7118178054 0.2881821946  Biso 1.0 Yb
Yb27 1.0000000000 0.7118178054 0.2881821946 0.7118178054  Biso 1.0 Yb
Yb28 1.0000000000 0.2881821946 0.2881821946 0.7118178054  Biso 1.0 Yb
Yb29 1.0000000000 0.7118178054 0.7118178054 0.2881821946  Biso 1.0 Yb
