# AFLOW.org Repositories
# Al8Fe4Y1   [BCT,BCT1,tI26] (STD_PRIM doi
data_Al8Fe4Y1
_pd_phase_name Al8Fe4Y1
_cell_length_a  6.8309541707
_cell_length_b  6.8309541707
_cell_length_c  6.8309541707
_cell_angle_alpha  98.2064840524
_cell_angle_beta  98.2064840524
_cell_angle_gamma  135.6037206270
_symmetry_space_group_name_H-M  'P1'
_symmetry_Int_Tables_Number  1
loop_
_symmetry_equiv_pos_site_id
_symmetry_equiv_pos_as_xyz
  1  x,y,z
loop_
 _atom_site_label
 _atom_site_occupancy
 _atom_site_fract_x
 _atom_site_fract_y
 _atom_site_fract_z
 _atom_site_thermal_displace_type
 _atom_site_B_iso_or_equiv
 _atom_site_type_symbol
Al1 1.0000000000 0.7233241365 0.5000000000 0.2233241365  Biso 1.0 Al
Al2 1.0000000000 0.2766758635 0.5000000000 0.7766758635  Biso 1.0 Al
Al3 1.0000000000 0.5000000000 0.7233241365 0.2233241365  Biso 1.0 Al
Al4 1.0000000000 0.5000000000 0.2766758635 0.7766758635  Biso 1.0 Al
Al5 1.0000000000 0.6557704232 0.0000000000 0.6557704232  Biso 1.0 Al
Al6 1.0000000000 0.3442295768 0.0000000000 0.3442295768  Biso 1.0 Al
Al7 1.0000000000 0.0000000000 0.6557704232 0.6557704232  Biso 1.0 Al
Al8 1.0000000000 0.0000000000 0.3442295768 0.3442295768  Biso 1.0 Al
Fe9 1.0000000000 0.5000000000 0.5000000000 0.5000000000  Biso 1.0 Fe
Fe10 1.0000000000 0.0000000000 0.0000000000 0.5000000000  Biso 1.0 Fe
Fe11 1.0000000000 0.0000000000 0.5000000000 0.0000000000  Biso 1.0 Fe
Fe12 1.0000000000 0.5000000000 0.0000000000 0.0000000000  Biso 1.0 Fe
Y13 1.0000000000 0.0000000000 0.0000000000 0.0000000000  Biso 1.0 Y
