# AFLOW.org Repositories
# Al8Mo3   [MCLC,MCLC1,mS22] (STD_PRIM doi
data_Al8Mo3
_pd_phase_name Al8Mo3
_cell_length_a  4.9750124272
_cell_length_b  4.9750124272
_cell_length_c  10.1132867444
_cell_angle_alpha  80.0414304309
_cell_angle_beta  80.0414304309
_cell_angle_gamma  43.1197841876
_symmetry_space_group_name_H-M  'P1'
_symmetry_Int_Tables_Number  1
loop_
_symmetry_equiv_pos_site_id
_symmetry_equiv_pos_as_xyz
  1  x,y,z
loop_
 _atom_site_label
 _atom_site_occupancy
 _atom_site_fract_x
 _atom_site_fract_y
 _atom_site_fract_z
 _atom_site_thermal_displace_type
 _atom_site_B_iso_or_equiv
 _atom_site_type_symbol
Al1 1.0000000000 0.1857221738 0.1857221738 0.7216357025  Biso 1.0 Al
Al2 1.0000000000 0.8142778262 0.8142778262 0.2783642975  Biso 1.0 Al
Al3 1.0000000000 0.2729557390 0.2729557390 0.0900740433  Biso 1.0 Al
Al4 1.0000000000 0.7270442610 0.7270442610 0.9099259567  Biso 1.0 Al
Al5 1.0000000000 0.3684776064 0.3684776064 0.4584890914  Biso 1.0 Al
Al6 1.0000000000 0.6315223936 0.6315223936 0.5415109086  Biso 1.0 Al
Al7 1.0000000000 0.4590598815 0.4590598815 0.8209402479  Biso 1.0 Al
Al8 1.0000000000 0.5409401185 0.5409401185 0.1790597521  Biso 1.0 Al
Mo9 1.0000000000 0.0000000000 0.0000000000 0.0000000000  Biso 1.0 Mo
Mo10 1.0000000000 0.0953695322 0.0953695322 0.3402029291  Biso 1.0 Mo
Mo11 1.0000000000 0.9046304678 0.9046304678 0.6597970709  Biso 1.0 Mo
