# AFLOW.org Repositories
# Al9Ba1Co2   [HEX,HEX,hP12] (STD_PRIM doi
data_Al9Ba1Co2
_pd_phase_name Al9Ba1Co2
_cell_length_a  7.8767127539
_cell_length_b  7.8767127539
_cell_length_c  3.9377102815
_cell_angle_alpha  90.0000000000
_cell_angle_beta  90.0000000000
_cell_angle_gamma  120.0000000000
_symmetry_space_group_name_H-M  'P1'
_symmetry_Int_Tables_Number  1
loop_
_symmetry_equiv_pos_site_id
_symmetry_equiv_pos_as_xyz
  1  x,y,z
loop_
 _atom_site_label
 _atom_site_occupancy
 _atom_site_fract_x
 _atom_site_fract_y
 _atom_site_fract_z
 _atom_site_thermal_displace_type
 _atom_site_B_iso_or_equiv
 _atom_site_type_symbol
Al1 1.0000000000 0.0000000000 0.5000000000 0.0000000000  Biso 1.0 Al
Al2 1.0000000000 0.5000000000 0.5000000000 0.0000000000  Biso 1.0 Al
Al3 1.0000000000 0.5000000000 0.0000000000 0.0000000000  Biso 1.0 Al
Al4 1.0000000000 0.4323353029 0.2161662024 0.5000000000  Biso 1.0 Al
Al5 1.0000000000 0.7838308994 0.2161662024 0.5000000000  Biso 1.0 Al
Al6 1.0000000000 0.7838357246 0.5676714491 0.5000000000  Biso 1.0 Al
Al7 1.0000000000 0.5676646971 0.7838337976 0.5000000000  Biso 1.0 Al
Al8 1.0000000000 0.2161691006 0.7838337976 0.5000000000  Biso 1.0 Al
Al9 1.0000000000 0.2161642754 0.4323285509 0.5000000000  Biso 1.0 Al
Ba10 1.0000000000 0.0000000000 0.0000000000 0.0000000000  Biso 1.0 Ba
Co11 1.0000000000 0.6666653278 0.3333306555 0.0000000000  Biso 1.0 Co
Co12 1.0000000000 0.3333346722 0.6666693445 0.0000000000  Biso 1.0 Co
