# AFLOW.org Repositories
# As1Ca3Cl3   [CUB,CUB,cP7] (STD_PRIM doi:
data_As1Ca3Cl3
_pd_phase_name As1Ca3Cl3
_cell_length_a  5.7841265743
_cell_length_b  5.7841265743
_cell_length_c  5.7841265743
_cell_angle_alpha  90.0000000000
_cell_angle_beta  90.0000000000
_cell_angle_gamma  90.0000000000
_symmetry_space_group_name_H-M  'P1'
_symmetry_Int_Tables_Number  1
loop_
_symmetry_equiv_pos_site_id
_symmetry_equiv_pos_as_xyz
  1  x,y,z
loop_
 _atom_site_label
 _atom_site_occupancy
 _atom_site_fract_x
 _atom_site_fract_y
 _atom_site_fract_z
 _atom_site_thermal_displace_type
 _atom_site_B_iso_or_equiv
 _atom_site_type_symbol
As1 1.0000000000 0.0000000000 0.0000000000 0.0000000000  Biso 1.0 As
Ca2 1.0000000000 0.5000000000 0.0000000000 0.0000000000  Biso 1.0 Ca
Ca3 1.0000000000 0.0000000000 0.5000000000 0.0000000000  Biso 1.0 Ca
Ca4 1.0000000000 0.0000000000 0.0000000000 0.5000000000  Biso 1.0 Ca
Cl5 1.0000000000 0.0000000000 0.5000000000 0.5000000000  Biso 1.0 Cl
Cl6 1.0000000000 0.5000000000 0.0000000000 0.5000000000  Biso 1.0 Cl
Cl7 1.0000000000 0.5000000000 0.5000000000 0.0000000000  Biso 1.0 Cl
