# AFLOW.org Repositories
# As1C1V3   [ORCC,ORCC,oS20] (STD_PRIM doi
data_As1C1V3
_pd_phase_name As1C1V3
_cell_length_a  5.3265410509
_cell_length_b  5.3265410509
_cell_length_c  7.7192869094
_cell_angle_alpha  90.0000000000
_cell_angle_beta  90.0000000000
_cell_angle_gamma  145.3163586052
_symmetry_space_group_name_H-M  'P1'
_symmetry_Int_Tables_Number  1
loop_
_symmetry_equiv_pos_site_id
_symmetry_equiv_pos_as_xyz
  1  x,y,z
loop_
 _atom_site_label
 _atom_site_occupancy
 _atom_site_fract_x
 _atom_site_fract_y
 _atom_site_fract_z
 _atom_site_thermal_displace_type
 _atom_site_B_iso_or_equiv
 _atom_site_type_symbol
As1 1.0000000000 0.7574970379 0.2425029621 0.7500000000  Biso 1.0 As
As2 1.0000000000 0.2425029621 0.7574970379 0.2500000000  Biso 1.0 As
C3 1.0000000000 0.5000000000 0.5000000000 0.0000000000  Biso 1.0 C
C4 1.0000000000 0.5000000000 0.5000000000 0.5000000000  Biso 1.0 C
V5 1.0000000000 0.1269205193 0.8730794807 0.9481453040  Biso 1.0 V
V6 1.0000000000 0.8730794807 0.1269205193 0.4481453040  Biso 1.0 V
V7 1.0000000000 0.1269205193 0.8730794807 0.5518546960  Biso 1.0 V
V8 1.0000000000 0.8730794807 0.1269205193 0.0518546960  Biso 1.0 V
V9 1.0000000000 0.4551713910 0.5448286090 0.7500000000  Biso 1.0 V
V10 1.0000000000 0.5448286090 0.4551713910 0.2500000000  Biso 1.0 V
