# AFLOW.org Repositories
# As1Co1S1   [ORC,ORC,oP6] (STD_PRIM doi:1
data_As1Co1S1
_pd_phase_name As1Co1S1
_cell_length_a  3.4915862062
_cell_length_b  4.6040644039
_cell_length_c  5.5742450383
_cell_angle_alpha  90.0000000000
_cell_angle_beta  90.0000000000
_cell_angle_gamma  90.0000000000
_symmetry_space_group_name_H-M  'P1'
_symmetry_Int_Tables_Number  1
loop_
_symmetry_equiv_pos_site_id
_symmetry_equiv_pos_as_xyz
  1  x,y,z
loop_
 _atom_site_label
 _atom_site_occupancy
 _atom_site_fract_x
 _atom_site_fract_y
 _atom_site_fract_z
 _atom_site_thermal_displace_type
 _atom_site_B_iso_or_equiv
 _atom_site_type_symbol
As1 1.0000000000 0.7495678328 0.0414301234 0.6263683114  Biso 1.0 As
As2 1.0000000000 0.2504321672 0.9585698766 0.1263683114  Biso 1.0 As
Co3 1.0000000000 0.7501527626 0.2638884213 0.0025321716  Biso 1.0 Co
Co4 1.0000000000 0.2498472374 0.7361115787 0.5025321716  Biso 1.0 Co
S5 1.0000000000 0.7499897411 0.4476308537 0.3772495170  Biso 1.0 S
S6 1.0000000000 0.2500102589 0.5523691463 0.8772495170  Biso 1.0 S
