# AFLOW.org Repositories
# As1Dy1O4   [BCT,BCT1,tI24] (STD_PRIM doi
data_As1Dy1O4
_pd_phase_name As1Dy1O4
_cell_length_a  5.9742325464
_cell_length_b  5.9742325464
_cell_length_c  5.9742325464
_cell_angle_alpha  106.4458913418
_cell_angle_beta  106.4458913418
_cell_angle_gamma  115.7077226512
_symmetry_space_group_name_H-M  'P1'
_symmetry_Int_Tables_Number  1
loop_
_symmetry_equiv_pos_site_id
_symmetry_equiv_pos_as_xyz
  1  x,y,z
loop_
 _atom_site_label
 _atom_site_occupancy
 _atom_site_fract_x
 _atom_site_fract_y
 _atom_site_fract_z
 _atom_site_thermal_displace_type
 _atom_site_B_iso_or_equiv
 _atom_site_type_symbol
As1 1.0000000000 0.5000000000 0.5000000000 0.0000000000  Biso 1.0 As
As2 1.0000000000 0.2500000000 0.7500000000 0.5000000000  Biso 1.0 As
Dy3 1.0000000000 0.0000000000 0.0000000000 0.0000000000  Biso 1.0 Dy
Dy4 1.0000000000 0.7500000000 0.2500000000 0.5000000000  Biso 1.0 Dy
O5 1.0000000000 0.6774225779 0.4959519835 0.8185294056  Biso 1.0 O
O6 1.0000000000 0.6774225779 0.8588931723 0.1814705944  Biso 1.0 O
O7 1.0000000000 0.6088931723 0.9274225779 0.6814705944  Biso 1.0 O
O8 1.0000000000 0.2459519835 0.9274225779 0.3185294056  Biso 1.0 O
O9 1.0000000000 0.0725774221 0.3911068277 0.3185294056  Biso 1.0 O
O10 1.0000000000 0.0725774221 0.7540480165 0.6814705944  Biso 1.0 O
O11 1.0000000000 0.1411068277 0.3225774221 0.8185294056  Biso 1.0 O
O12 1.0000000000 0.5040480165 0.3225774221 0.1814705944  Biso 1.0 O
