# AFLOW.org Repositories
# As1Ga1   [CUB,CUB,cP16] (STD_PRIM doi:10
data_As1Ga1
_pd_phase_name As1Ga1
_cell_length_a  7.0281209537
_cell_length_b  7.0281209537
_cell_length_c  7.0281209537
_cell_angle_alpha  90.0000000000
_cell_angle_beta  90.0000000000
_cell_angle_gamma  90.0000000000
_symmetry_space_group_name_H-M  'P1'
_symmetry_Int_Tables_Number  1
loop_
_symmetry_equiv_pos_site_id
_symmetry_equiv_pos_as_xyz
  1  x,y,z
loop_
 _atom_site_label
 _atom_site_occupancy
 _atom_site_fract_x
 _atom_site_fract_y
 _atom_site_fract_z
 _atom_site_thermal_displace_type
 _atom_site_B_iso_or_equiv
 _atom_site_type_symbol
As1 1.0000000000 0.8568149863 0.8568149863 0.1431850137  Biso 1.0 As
As2 1.0000000000 0.6431850137 0.1431850137 0.6431850137  Biso 1.0 As
As3 1.0000000000 0.1431850137 0.3568149863 0.3568149863  Biso 1.0 As
As4 1.0000000000 0.3568149863 0.6431850137 0.8568149863  Biso 1.0 As
As5 1.0000000000 0.1431850137 0.1431850137 0.8568149863  Biso 1.0 As
As6 1.0000000000 0.3568149863 0.8568149863 0.3568149863  Biso 1.0 As
As7 1.0000000000 0.8568149863 0.6431850137 0.6431850137  Biso 1.0 As
As8 1.0000000000 0.6431850137 0.3568149863 0.1431850137  Biso 1.0 As
Ga9 1.0000000000 0.6555652819 0.6555652819 0.3444347181  Biso 1.0 Ga
Ga10 1.0000000000 0.8444347181 0.3444347181 0.8444347181  Biso 1.0 Ga
Ga11 1.0000000000 0.3444347181 0.1555652819 0.1555652819  Biso 1.0 Ga
Ga12 1.0000000000 0.1555652819 0.8444347181 0.6555652819  Biso 1.0 Ga
Ga13 1.0000000000 0.3444347181 0.3444347181 0.6555652819  Biso 1.0 Ga
Ga14 1.0000000000 0.1555652819 0.6555652819 0.1555652819  Biso 1.0 Ga
Ga15 1.0000000000 0.6555652819 0.8444347181 0.8444347181  Biso 1.0 Ga
Ga16 1.0000000000 0.8444347181 0.1555652819 0.3444347181  Biso 1.0 Ga
