# AFLOW.org Repositories
# As1K3Se3   [CUB,CUB,cP28] (STD_PRIM doi:
data_As1K3Se3
_pd_phase_name As1K3Se3
_cell_length_a  9.8930077204
_cell_length_b  9.8930077204
_cell_length_c  9.8930077204
_cell_angle_alpha  90.0000000000
_cell_angle_beta  90.0000000000
_cell_angle_gamma  90.0000000000
_symmetry_space_group_name_H-M  'P1'
_symmetry_Int_Tables_Number  1
loop_
_symmetry_equiv_pos_site_id
_symmetry_equiv_pos_as_xyz
  1  x,y,z
loop_
 _atom_site_label
 _atom_site_occupancy
 _atom_site_fract_x
 _atom_site_fract_y
 _atom_site_fract_z
 _atom_site_thermal_displace_type
 _atom_site_B_iso_or_equiv
 _atom_site_type_symbol
As1 1.0000000000 0.9773341658 0.9773341658 0.0226658342  Biso 1.0 As
As2 1.0000000000 0.5226658342 0.0226658342 0.5226658342  Biso 1.0 As
As3 1.0000000000 0.0226658342 0.4773341658 0.4773341658  Biso 1.0 As
As4 1.0000000000 0.4773341658 0.5226658342 0.9773341658  Biso 1.0 As
K5 1.0000000000 0.6837934612 0.6837934612 0.3162065388  Biso 1.0 K
K6 1.0000000000 0.8162065388 0.3162065388 0.8162065388  Biso 1.0 K
K7 1.0000000000 0.3162065388 0.1837934612 0.1837934612  Biso 1.0 K
K8 1.0000000000 0.1837934612 0.8162065388 0.6837934612  Biso 1.0 K
K9 1.0000000000 0.4211191168 0.4211191168 0.5788808832  Biso 1.0 K
K10 1.0000000000 0.0788808832 0.5788808832 0.0788808832  Biso 1.0 K
K11 1.0000000000 0.5788808832 0.9211191168 0.9211191168  Biso 1.0 K
K12 1.0000000000 0.9211191168 0.0788808832 0.4211191168  Biso 1.0 K
K13 1.0000000000 0.1871566631 0.1871566631 0.8128433369  Biso 1.0 K
K14 1.0000000000 0.3128433369 0.8128433369 0.3128433369  Biso 1.0 K
K15 1.0000000000 0.8128433369 0.6871566631 0.6871566631  Biso 1.0 K
K16 1.0000000000 0.6871566631 0.3128433369 0.1871566631  Biso 1.0 K
Se17 1.0000000000 0.7892182449 0.4007266488 0.4947740076  Biso 1.0 Se
Se18 1.0000000000 0.7107817551 0.5992733512 0.9947740076  Biso 1.0 Se
Se19 1.0000000000 0.2107817551 0.9007266488 0.0052259924  Biso 1.0 Se
Se20 1.0000000000 0.2892182449 0.0992733512 0.5052259924  Biso 1.0 Se
Se21 1.0000000000 0.5052259924 0.7892182449 0.5992733512  Biso 1.0 Se
Se22 1.0000000000 0.0052259924 0.7107817551 0.4007266488  Biso 1.0 Se
Se23 1.0000000000 0.9947740076 0.2107817551 0.0992733512  Biso 1.0 Se
Se24 1.0000000000 0.4947740076 0.2892182449 0.9007266488  Biso 1.0 Se
Se25 1.0000000000 0.4007266488 0.5052259924 0.2107817551  Biso 1.0 Se
Se26 1.0000000000 0.5992733512 0.0052259924 0.2892182449  Biso 1.0 Se
Se27 1.0000000000 0.9007266488 0.9947740076 0.7892182449  Biso 1.0 Se
Se28 1.0000000000 0.0992733512 0.4947740076 0.7107817551  Biso 1.0 Se
