# AFLOW.org Repositories
# As1K3S3   [CUB,CUB,cP28] (STD_PRIM doi:1
data_As1K3S3
_pd_phase_name As1K3S3
_cell_length_a  9.5224187317
_cell_length_b  9.5224187317
_cell_length_c  9.5224187317
_cell_angle_alpha  90.0000000000
_cell_angle_beta  90.0000000000
_cell_angle_gamma  90.0000000000
_symmetry_space_group_name_H-M  'P1'
_symmetry_Int_Tables_Number  1
loop_
_symmetry_equiv_pos_site_id
_symmetry_equiv_pos_as_xyz
  1  x,y,z
loop_
 _atom_site_label
 _atom_site_occupancy
 _atom_site_fract_x
 _atom_site_fract_y
 _atom_site_fract_z
 _atom_site_thermal_displace_type
 _atom_site_B_iso_or_equiv
 _atom_site_type_symbol
As1 1.0000000000 0.7718855919 0.7718855919 0.2281144081  Biso 1.0 As
As2 1.0000000000 0.7281144081 0.2281144081 0.7281144081  Biso 1.0 As
As3 1.0000000000 0.2281144081 0.2718855919 0.2718855919  Biso 1.0 As
As4 1.0000000000 0.2718855919 0.7281144081 0.7718855919  Biso 1.0 As
K5 1.0000000000 0.5586034302 0.5586034302 0.4413965698  Biso 1.0 K
K6 1.0000000000 0.9413965698 0.4413965698 0.9413965698  Biso 1.0 K
K7 1.0000000000 0.4413965698 0.0586034302 0.0586034302  Biso 1.0 K
K8 1.0000000000 0.0586034302 0.9413965698 0.5586034302  Biso 1.0 K
K9 1.0000000000 0.0664298797 0.0664298797 0.9335701203  Biso 1.0 K
K10 1.0000000000 0.4335701203 0.9335701203 0.4335701203  Biso 1.0 K
K11 1.0000000000 0.9335701203 0.5664298797 0.5664298797  Biso 1.0 K
K12 1.0000000000 0.5664298797 0.4335701203 0.0664298797  Biso 1.0 K
K13 1.0000000000 0.3270994705 0.3270994705 0.6729005295  Biso 1.0 K
K14 1.0000000000 0.1729005295 0.6729005295 0.1729005295  Biso 1.0 K
K15 1.0000000000 0.6729005295 0.8270994705 0.8270994705  Biso 1.0 K
K16 1.0000000000 0.8270994705 0.1729005295 0.3270994705  Biso 1.0 K
S17 1.0000000000 0.8451804550 0.5438903564 0.2464408684  Biso 1.0 S
S18 1.0000000000 0.6548195450 0.4561096436 0.7464408684  Biso 1.0 S
S19 1.0000000000 0.1548195450 0.0438903564 0.2535591316  Biso 1.0 S
S20 1.0000000000 0.3451804550 0.9561096436 0.7535591316  Biso 1.0 S
S21 1.0000000000 0.7535591316 0.8451804550 0.4561096436  Biso 1.0 S
S22 1.0000000000 0.2535591316 0.6548195450 0.5438903564  Biso 1.0 S
S23 1.0000000000 0.7464408684 0.1548195450 0.9561096436  Biso 1.0 S
S24 1.0000000000 0.2464408684 0.3451804550 0.0438903564  Biso 1.0 S
S25 1.0000000000 0.5438903564 0.7535591316 0.1548195450  Biso 1.0 S
S26 1.0000000000 0.4561096436 0.2535591316 0.3451804550  Biso 1.0 S
S27 1.0000000000 0.0438903564 0.7464408684 0.8451804550  Biso 1.0 S
S28 1.0000000000 0.9561096436 0.2464408684 0.6548195450  Biso 1.0 S
