# AFLOW.org Repositories
# As1Na1   [TET,TET,tP2] (STD_PRIM doi:10.
data_As1Na1
_pd_phase_name As1Na1
_cell_length_a  2.9968629019
_cell_length_b  2.9968629019
_cell_length_c  4.5390430683
_cell_angle_alpha  90.0000000000
_cell_angle_beta  90.0000000000
_cell_angle_gamma  90.0000000000
_symmetry_space_group_name_H-M  'P1'
_symmetry_Int_Tables_Number  1
loop_
_symmetry_equiv_pos_site_id
_symmetry_equiv_pos_as_xyz
  1  x,y,z
loop_
 _atom_site_label
 _atom_site_occupancy
 _atom_site_fract_x
 _atom_site_fract_y
 _atom_site_fract_z
 _atom_site_thermal_displace_type
 _atom_site_B_iso_or_equiv
 _atom_site_type_symbol
As1 1.0000000000 0.5000000000 0.5000000000 0.5000000000  Biso 1.0 As
Na2 1.0000000000 0.0000000000 0.0000000000 0.0000000000  Biso 1.0 Na
