# AFLOW.org Repositories
# As1Na3Se3   [CUB,CUB,cP28] (STD_PRIM doi
data_As1Na3Se3
_pd_phase_name As1Na3Se3
_cell_length_a  8.9583231670
_cell_length_b  8.9583231670
_cell_length_c  8.9583231670
_cell_angle_alpha  90.0000000000
_cell_angle_beta  90.0000000000
_cell_angle_gamma  90.0000000000
_symmetry_space_group_name_H-M  'P1'
_symmetry_Int_Tables_Number  1
loop_
_symmetry_equiv_pos_site_id
_symmetry_equiv_pos_as_xyz
  1  x,y,z
loop_
 _atom_site_label
 _atom_site_occupancy
 _atom_site_fract_x
 _atom_site_fract_y
 _atom_site_fract_z
 _atom_site_thermal_displace_type
 _atom_site_B_iso_or_equiv
 _atom_site_type_symbol
As1 1.0000000000 0.9706128188 0.9706128188 0.0293871812  Biso 1.0 As
As2 1.0000000000 0.5292666183 0.0292256947 0.5292865860  Biso 1.0 As
As3 1.0000000000 0.0292256947 0.4707134140 0.4707333817  Biso 1.0 As
As4 1.0000000000 0.4707134140 0.5292666183 0.9707743053  Biso 1.0 As
Na5 1.0000000000 0.6799001738 0.6799001738 0.3200998262  Biso 1.0 Na
Na6 1.0000000000 0.8199861198 0.3200909129 0.8199999652  Biso 1.0 Na
Na7 1.0000000000 0.3200909129 0.1800000348 0.1800138802  Biso 1.0 Na
Na8 1.0000000000 0.1800000348 0.8199861198 0.6799090871  Biso 1.0 Na
Na9 1.0000000000 0.4163977560 0.4163977560 0.5836022440  Biso 1.0 Na
Na10 1.0000000000 0.0835798382 0.5836103371 0.0835991400  Biso 1.0 Na
Na11 1.0000000000 0.5836103371 0.9164008600 0.9164201618  Biso 1.0 Na
Na12 1.0000000000 0.9164008600 0.0835798382 0.4163896629  Biso 1.0 Na
Na13 1.0000000000 0.1865307290 0.1865307290 0.8134692710  Biso 1.0 Na
Na14 1.0000000000 0.3134193407 0.8135310289 0.3134326899  Biso 1.0 Na
Na15 1.0000000000 0.8135310289 0.6865673101 0.6865806593  Biso 1.0 Na
Na16 1.0000000000 0.6865673101 0.3134193407 0.1864689711  Biso 1.0 Na
Se17 1.0000000000 0.7717710992 0.3889770960 0.4995008352  Biso 1.0 Se
Se18 1.0000000000 0.7282991289 0.6109886418 0.0000000000  Biso 1.0 Se
Se19 1.0000000000 0.2283103161 0.8889899268 0.0000000000  Biso 1.0 Se
Se20 1.0000000000 0.2718774776 0.1109103841 0.5005090992  Biso 1.0 Se
Se21 1.0000000000 0.5004991648 0.7717710992 0.6110229040  Biso 1.0 Se
Se22 1.0000000000 0.0000000000 0.7282991289 0.3890113582  Biso 1.0 Se
Se23 1.0000000000 0.0000000000 0.2283103161 0.1110100732  Biso 1.0 Se
Se24 1.0000000000 0.4994909008 0.2718774776 0.8890896159  Biso 1.0 Se
Se25 1.0000000000 0.3889770960 0.5004991648 0.2282289008  Biso 1.0 Se
Se26 1.0000000000 0.6109886418 0.0000000000 0.2717008711  Biso 1.0 Se
Se27 1.0000000000 0.8889899268 0.0000000000 0.7716896839  Biso 1.0 Se
Se28 1.0000000000 0.1109103841 0.4994909008 0.7281225224  Biso 1.0 Se
