# AFLOW.org Repositories
# As1Nb3Te3   [HEX,HEX,hP14] (STD_PRIM doi
data_As1Nb3Te3
_pd_phase_name As1Nb3Te3
_cell_length_a  10.5282825651
_cell_length_b  10.5282825651
_cell_length_c  3.5882091841
_cell_angle_alpha  90.0000000000
_cell_angle_beta  90.0000000000
_cell_angle_gamma  120.0000000000
_symmetry_space_group_name_H-M  'P1'
_symmetry_Int_Tables_Number  1
loop_
_symmetry_equiv_pos_site_id
_symmetry_equiv_pos_as_xyz
  1  x,y,z
loop_
 _atom_site_label
 _atom_site_occupancy
 _atom_site_fract_x
 _atom_site_fract_y
 _atom_site_fract_z
 _atom_site_thermal_displace_type
 _atom_site_B_iso_or_equiv
 _atom_site_type_symbol
As1 1.0000000000 0.6666605185 0.3333338283 0.2500000000  Biso 1.0 As
As2 1.0000000000 0.3333394815 0.6666661717 0.7500000000  Biso 1.0 As
Nb3 1.0000000000 0.3792547735 0.8749784029 0.2500000000  Biso 1.0 Nb
Nb4 1.0000000000 0.1250304757 0.5042772501 0.2500000000  Biso 1.0 Nb
Nb5 1.0000000000 0.4957294401 0.6207470617 0.2500000000  Biso 1.0 Nb
Nb6 1.0000000000 0.6207452265 0.1250215971 0.7500000000  Biso 1.0 Nb
Nb7 1.0000000000 0.8749695243 0.4957227499 0.7500000000  Biso 1.0 Nb
Nb8 1.0000000000 0.5042705599 0.3792529383 0.7500000000  Biso 1.0 Nb
Te9 1.0000000000 0.6711360876 0.9473636297 0.2500000000  Biso 1.0 Te
Te10 1.0000000000 0.0526337226 0.7237669154 0.2500000000  Biso 1.0 Te
Te11 1.0000000000 0.2762274991 0.3288649873 0.2500000000  Biso 1.0 Te
Te12 1.0000000000 0.3288639124 0.0526363703 0.7500000000  Biso 1.0 Te
Te13 1.0000000000 0.9473662774 0.2762330846 0.7500000000  Biso 1.0 Te
Te14 1.0000000000 0.7237725009 0.6711350127 0.7500000000  Biso 1.0 Te
