# AFLOW.org Repositories
# As1O4Sc1   [BCT,BCT1,tI24] (STD_PRIM doi
data_As1O4Sc1
_pd_phase_name As1O4Sc1
_cell_length_a  5.7741233607
_cell_length_b  5.7741233607
_cell_length_c  5.7741233607
_cell_angle_alpha  106.8196160941
_cell_angle_beta  106.8196160941
_cell_angle_gamma  114.9154846373
_symmetry_space_group_name_H-M  'P1'
_symmetry_Int_Tables_Number  1
loop_
_symmetry_equiv_pos_site_id
_symmetry_equiv_pos_as_xyz
  1  x,y,z
loop_
 _atom_site_label
 _atom_site_occupancy
 _atom_site_fract_x
 _atom_site_fract_y
 _atom_site_fract_z
 _atom_site_thermal_displace_type
 _atom_site_B_iso_or_equiv
 _atom_site_type_symbol
As1 1.0000000000 0.6250000000 0.3750000000 0.7500000000  Biso 1.0 As
As2 1.0000000000 0.3750000000 0.6250000000 0.2500000000  Biso 1.0 As
O3 1.0000000000 0.8103146349 0.3752934323 0.5649787974  Biso 1.0 O
O4 1.0000000000 0.8103146349 0.7453358374 0.9350212026  Biso 1.0 O
O5 1.0000000000 0.7453358374 0.8103146349 0.4350212026  Biso 1.0 O
O6 1.0000000000 0.3752934323 0.8103146349 0.0649787974  Biso 1.0 O
O7 1.0000000000 0.1896853651 0.2546641626 0.0649787974  Biso 1.0 O
O8 1.0000000000 0.1896853651 0.6247065677 0.4350212026  Biso 1.0 O
O9 1.0000000000 0.2546641626 0.1896853651 0.5649787974  Biso 1.0 O
O10 1.0000000000 0.6247065677 0.1896853651 0.9350212026  Biso 1.0 O
Sc11 1.0000000000 0.8750000000 0.1250000000 0.2500000000  Biso 1.0 Sc
Sc12 1.0000000000 0.1250000000 0.8750000000 0.7500000000  Biso 1.0 Sc
