# AFLOW.org Repositories
# As1Pd1Tb1   [ORC,ORC,oP12] (STD_PRIM doi
data_As1Pd1Tb1
_pd_phase_name As1Pd1Tb1
_cell_length_a  4.1531974692
_cell_length_b  7.1006390543
_cell_length_c  7.9637469472
_cell_angle_alpha  90.0000000000
_cell_angle_beta  90.0000000000
_cell_angle_gamma  90.0000000000
_symmetry_space_group_name_H-M  'P1'
_symmetry_Int_Tables_Number  1
loop_
_symmetry_equiv_pos_site_id
_symmetry_equiv_pos_as_xyz
  1  x,y,z
loop_
 _atom_site_label
 _atom_site_occupancy
 _atom_site_fract_x
 _atom_site_fract_y
 _atom_site_fract_z
 _atom_site_thermal_displace_type
 _atom_site_B_iso_or_equiv
 _atom_site_type_symbol
As1 1.0000000000 0.2500000000 0.2497280643 0.8807205468  Biso 1.0 As
As2 1.0000000000 0.7500000000 0.2502719357 0.3807205468  Biso 1.0 As
As3 1.0000000000 0.7500000000 0.7502719357 0.1192794532  Biso 1.0 As
As4 1.0000000000 0.2500000000 0.7497280643 0.6192794532  Biso 1.0 As
Pd5 1.0000000000 0.2500000000 0.6449032413 0.9373093159  Biso 1.0 Pd
Pd6 1.0000000000 0.7500000000 0.8550967587 0.4373093159  Biso 1.0 Pd
Pd7 1.0000000000 0.7500000000 0.3550967587 0.0626906841  Biso 1.0 Pd
Pd8 1.0000000000 0.2500000000 0.1449032413 0.5626906841  Biso 1.0 Pd
Tb9 1.0000000000 0.2500000000 0.5295815118 0.3066418365  Biso 1.0 Tb
Tb10 1.0000000000 0.7500000000 0.9704184882 0.8066418365  Biso 1.0 Tb
Tb11 1.0000000000 0.7500000000 0.4704184882 0.6933581635  Biso 1.0 Tb
Tb12 1.0000000000 0.2500000000 0.0295815118 0.1933581635  Biso 1.0 Tb
