# AFLOW.org Repositories
# As1Pd5Sb1   [FCC,FCC,cF112] (STD_PRIM do
data_As1Pd5Sb1
_pd_phase_name As1Pd5Sb1
_cell_length_a  8.7273909918
_cell_length_b  8.7273909918
_cell_length_c  8.7273909918
_cell_angle_alpha  60.0000000000
_cell_angle_beta  60.0000000000
_cell_angle_gamma  60.0000000000
_symmetry_space_group_name_H-M  'P1'
_symmetry_Int_Tables_Number  1
loop_
_symmetry_equiv_pos_site_id
_symmetry_equiv_pos_as_xyz
  1  x,y,z
loop_
 _atom_site_label
 _atom_site_occupancy
 _atom_site_fract_x
 _atom_site_fract_y
 _atom_site_fract_z
 _atom_site_thermal_displace_type
 _atom_site_B_iso_or_equiv
 _atom_site_type_symbol
As1 1.0000000000 0.6250000000 0.1250000000 0.6250000000  Biso 1.0 As
As2 1.0000000000 0.6250000000 0.6250000000 0.6250000000  Biso 1.0 As
As3 1.0000000000 0.6250000000 0.6250000000 0.1250000000  Biso 1.0 As
As4 1.0000000000 0.1250000000 0.6250000000 0.6250000000  Biso 1.0 As
Pd5 1.0000000000 0.7134533179 0.7134533179 0.2865466821  Biso 1.0 Pd
Pd6 1.0000000000 0.2865466821 0.2865466821 0.7134533179  Biso 1.0 Pd
Pd7 1.0000000000 0.2865466821 0.7134533179 0.7134533179  Biso 1.0 Pd
Pd8 1.0000000000 0.7134533179 0.2865466821 0.2865466821  Biso 1.0 Pd
Pd9 1.0000000000 0.2865466821 0.7134533179 0.2865466821  Biso 1.0 Pd
Pd10 1.0000000000 0.7134533179 0.2865466821 0.7134533179  Biso 1.0 Pd
Pd11 1.0000000000 0.5365466821 0.9634533179 0.9634533179  Biso 1.0 Pd
Pd12 1.0000000000 0.9634533179 0.5365466821 0.5365466821  Biso 1.0 Pd
Pd13 1.0000000000 0.9634533179 0.9634533179 0.5365466821  Biso 1.0 Pd
Pd14 1.0000000000 0.5365466821 0.5365466821 0.9634533179  Biso 1.0 Pd
Pd15 1.0000000000 0.9634533179 0.5365466821 0.9634533179  Biso 1.0 Pd
Pd16 1.0000000000 0.5365466821 0.9634533179 0.5365466821  Biso 1.0 Pd
Pd17 1.0000000000 0.3391892171 0.9824323486 0.3391892171  Biso 1.0 Pd
Pd18 1.0000000000 0.3391892171 0.3391892171 0.3391892171  Biso 1.0 Pd
Pd19 1.0000000000 0.3391892171 0.3391892171 0.9824323486  Biso 1.0 Pd
Pd20 1.0000000000 0.9824323486 0.3391892171 0.3391892171  Biso 1.0 Pd
Pd21 1.0000000000 0.9108107829 0.9108107829 0.9108107829  Biso 1.0 Pd
Pd22 1.0000000000 0.9108107829 0.2675676514 0.9108107829  Biso 1.0 Pd
Pd23 1.0000000000 0.9108107829 0.9108107829 0.2675676514  Biso 1.0 Pd
Pd24 1.0000000000 0.2675676514 0.9108107829 0.9108107829  Biso 1.0 Pd
Sb25 1.0000000000 0.1250000000 0.6250000000 0.1250000000  Biso 1.0 Sb
Sb26 1.0000000000 0.1250000000 0.1250000000 0.1250000000  Biso 1.0 Sb
Sb27 1.0000000000 0.1250000000 0.1250000000 0.6250000000  Biso 1.0 Sb
Sb28 1.0000000000 0.6250000000 0.1250000000 0.1250000000  Biso 1.0 Sb
