# AFLOW.org Repositories
# As1Pd1Se1   [CUB,CUB,cP12] (STD_PRIM doi
data_As1Pd1Se1
_pd_phase_name As1Pd1Se1
_cell_length_a  6.1821045303
_cell_length_b  6.1821045303
_cell_length_c  6.1821045303
_cell_angle_alpha  90.0000000000
_cell_angle_beta  90.0000000000
_cell_angle_gamma  90.0000000000
_symmetry_space_group_name_H-M  'P1'
_symmetry_Int_Tables_Number  1
loop_
_symmetry_equiv_pos_site_id
_symmetry_equiv_pos_as_xyz
  1  x,y,z
loop_
 _atom_site_label
 _atom_site_occupancy
 _atom_site_fract_x
 _atom_site_fract_y
 _atom_site_fract_z
 _atom_site_thermal_displace_type
 _atom_site_B_iso_or_equiv
 _atom_site_type_symbol
As1 1.0000000000 0.6166530533 0.6166530533 0.3833469467  Biso 1.0 As
As2 1.0000000000 0.8833469467 0.3833469467 0.8833469467  Biso 1.0 As
As3 1.0000000000 0.3833469467 0.1166530533 0.1166530533  Biso 1.0 As
As4 1.0000000000 0.1166530533 0.8833469467 0.6166530533  Biso 1.0 As
Pd5 1.0000000000 0.0066749293 0.0066749293 0.9933250707  Biso 1.0 Pd
Pd6 1.0000000000 0.4933250707 0.9933250707 0.4933250707  Biso 1.0 Pd
Pd7 1.0000000000 0.9933250707 0.5066749293 0.5066749293  Biso 1.0 Pd
Pd8 1.0000000000 0.5066749293 0.4933250707 0.0066749293  Biso 1.0 Pd
Se9 1.0000000000 0.3872060140 0.3872060140 0.6127939860  Biso 1.0 Se
Se10 1.0000000000 0.1127939860 0.6127939860 0.1127939860  Biso 1.0 Se
Se11 1.0000000000 0.6127939860 0.8872060140 0.8872060140  Biso 1.0 Se
Se12 1.0000000000 0.8872060140 0.1127939860 0.3872060140  Biso 1.0 Se
