# AFLOW.org Repositories
# As1Rb3Se16   [FCC,FCC,cF160] (STD_PRIM d
data_As1Rb3Se16
_pd_phase_name As1Rb3Se16
_cell_length_a  12.0997115162
_cell_length_b  12.0997115162
_cell_length_c  12.0997115162
_cell_angle_alpha  60.0000000000
_cell_angle_beta  60.0000000000
_cell_angle_gamma  60.0000000000
_symmetry_space_group_name_H-M  'P1'
_symmetry_Int_Tables_Number  1
loop_
_symmetry_equiv_pos_site_id
_symmetry_equiv_pos_as_xyz
  1  x,y,z
loop_
 _atom_site_label
 _atom_site_occupancy
 _atom_site_fract_x
 _atom_site_fract_y
 _atom_site_fract_z
 _atom_site_thermal_displace_type
 _atom_site_B_iso_or_equiv
 _atom_site_type_symbol
As1 1.0000000000 0.6250000000 0.1250000000 0.1250000000  Biso 1.0 As
As2 1.0000000000 0.3750000000 0.8750000000 0.8750000000  Biso 1.0 As
Rb3 1.0000000000 0.5000000000 0.5000000000 0.0000000000  Biso 1.0 Rb
Rb4 1.0000000000 0.0000000000 0.0000000000 0.0000000000  Biso 1.0 Rb
Rb5 1.0000000000 0.5000000000 0.0000000000 0.0000000000  Biso 1.0 Rb
Rb6 1.0000000000 0.5000000000 0.0000000000 0.5000000000  Biso 1.0 Rb
Rb7 1.0000000000 0.1250000000 0.6250000000 0.6250000000  Biso 1.0 Rb
Rb8 1.0000000000 0.8750000000 0.3750000000 0.3750000000  Biso 1.0 Rb
Se9 1.0000000000 0.7049625388 0.2049625388 0.8851123835  Biso 1.0 Se
Se10 1.0000000000 0.7049625388 0.2049625388 0.2049625388  Biso 1.0 Se
Se11 1.0000000000 0.3851123835 0.2049625388 0.2049625388  Biso 1.0 Se
Se12 1.0000000000 0.7049625388 0.8851123835 0.2049625388  Biso 1.0 Se
Se13 1.0000000000 0.2950374612 0.7950374612 0.1148876165  Biso 1.0 Se
Se14 1.0000000000 0.2950374612 0.7950374612 0.7950374612  Biso 1.0 Se
Se15 1.0000000000 0.6148876165 0.7950374612 0.7950374612  Biso 1.0 Se
Se16 1.0000000000 0.2950374612 0.1148876165 0.7950374612  Biso 1.0 Se
Se17 1.0000000000 0.0376584815 0.9489562385 0.6873257282  Biso 1.0 Se
Se18 1.0000000000 0.4489562385 0.5376584815 0.3260595517  Biso 1.0 Se
Se19 1.0000000000 0.1873257282 0.3260595517 0.5376584815  Biso 1.0 Se
Se20 1.0000000000 0.8260595517 0.6873257282 0.9489562385  Biso 1.0 Se
Se21 1.0000000000 0.0376584815 0.6873257282 0.3260595517  Biso 1.0 Se
Se22 1.0000000000 0.4489562385 0.3260595517 0.6873257282  Biso 1.0 Se
Se23 1.0000000000 0.1873257282 0.5376584815 0.9489562385  Biso 1.0 Se
Se24 1.0000000000 0.8260595517 0.9489562385 0.5376584815  Biso 1.0 Se
Se25 1.0000000000 0.0376584815 0.3260595517 0.9489562385  Biso 1.0 Se
Se26 1.0000000000 0.4489562385 0.6873257282 0.5376584815  Biso 1.0 Se
Se27 1.0000000000 0.1873257282 0.9489562385 0.3260595517  Biso 1.0 Se
Se28 1.0000000000 0.8260595517 0.5376584815 0.6873257282  Biso 1.0 Se
Se29 1.0000000000 0.9623415185 0.0510437615 0.3126742718  Biso 1.0 Se
Se30 1.0000000000 0.5510437615 0.4623415185 0.6739404483  Biso 1.0 Se
Se31 1.0000000000 0.8126742718 0.6739404483 0.4623415185  Biso 1.0 Se
Se32 1.0000000000 0.1739404483 0.3126742718 0.0510437615  Biso 1.0 Se
Se33 1.0000000000 0.9623415185 0.3126742718 0.6739404483  Biso 1.0 Se
Se34 1.0000000000 0.5510437615 0.6739404483 0.3126742718  Biso 1.0 Se
Se35 1.0000000000 0.8126742718 0.4623415185 0.0510437615  Biso 1.0 Se
Se36 1.0000000000 0.1739404483 0.0510437615 0.4623415185  Biso 1.0 Se
Se37 1.0000000000 0.9623415185 0.6739404483 0.0510437615  Biso 1.0 Se
Se38 1.0000000000 0.5510437615 0.3126742718 0.4623415185  Biso 1.0 Se
Se39 1.0000000000 0.8126742718 0.0510437615 0.6739404483  Biso 1.0 Se
Se40 1.0000000000 0.1739404483 0.4623415185 0.3126742718  Biso 1.0 Se
