# AFLOW.org Repositories
# As1Ru1Zr1   [HEX,HEX,hP9] (STD_PRIM doi:
data_As1Ru1Zr1
_pd_phase_name As1Ru1Zr1
_cell_length_a  6.6368991094
_cell_length_b  6.6368991094
_cell_length_c  3.9217253040
_cell_angle_alpha  90.0000000000
_cell_angle_beta  90.0000000000
_cell_angle_gamma  120.0000000000
_symmetry_space_group_name_H-M  'P1'
_symmetry_Int_Tables_Number  1
loop_
_symmetry_equiv_pos_site_id
_symmetry_equiv_pos_as_xyz
  1  x,y,z
loop_
 _atom_site_label
 _atom_site_occupancy
 _atom_site_fract_x
 _atom_site_fract_y
 _atom_site_fract_z
 _atom_site_thermal_displace_type
 _atom_site_B_iso_or_equiv
 _atom_site_type_symbol
As1 1.0000000000 0.6666703822 0.3333436441 0.0000000000  Biso 1.0 As
As2 1.0000000000 0.3333267382 0.6666563559 0.0000000000  Biso 1.0 As
As3 1.0000000000 0.0000000000 0.0000000000 0.5000000000  Biso 1.0 As
Ru4 1.0000000000 0.0000000000 0.7558204538 0.0000000000  Biso 1.0 Ru
Ru5 1.0000000000 0.2441795462 0.2441795462 0.0000000000  Biso 1.0 Ru
Ru6 1.0000000000 0.7558128189 0.0000000000 0.0000000000  Biso 1.0 Ru
Zr7 1.0000000000 0.0000000000 0.4164118089 0.5000000000  Biso 1.0 Zr
Zr8 1.0000000000 0.5835881911 0.5835881911 0.5000000000  Biso 1.0 Zr
Zr9 1.0000000000 0.4164202047 0.0000000000 0.5000000000  Biso 1.0 Zr
