# AFLOW.org Repositories
# As1Sb3Zr5   [HEX,HEX,hP18] (STD_PRIM doi
data_As1Sb3Zr5
_pd_phase_name As1Sb3Zr5
_cell_length_a  8.6655376071
_cell_length_b  8.6655376071
_cell_length_c  5.9562929712
_cell_angle_alpha  90.0000000000
_cell_angle_beta  90.0000000000
_cell_angle_gamma  120.0000000000
_symmetry_space_group_name_H-M  'P1'
_symmetry_Int_Tables_Number  1
loop_
_symmetry_equiv_pos_site_id
_symmetry_equiv_pos_as_xyz
  1  x,y,z
loop_
 _atom_site_label
 _atom_site_occupancy
 _atom_site_fract_x
 _atom_site_fract_y
 _atom_site_fract_z
 _atom_site_thermal_displace_type
 _atom_site_B_iso_or_equiv
 _atom_site_type_symbol
As1 1.0000000000 0.0000000000 0.0000000000 0.0000000000  Biso 1.0 As
As2 1.0000000000 0.0000000000 0.0000000000 0.5000000000  Biso 1.0 As
Sb3 1.0000000000 0.3955376313 0.3955376313 0.2500000000  Biso 1.0 Sb
Sb4 1.0000000000 0.6044633849 0.0000000000 0.2500000000  Biso 1.0 Sb
Sb5 1.0000000000 0.0000000000 0.6044638423 0.2500000000  Biso 1.0 Sb
Sb6 1.0000000000 0.6044623687 0.6044623687 0.7500000000  Biso 1.0 Sb
Sb7 1.0000000000 0.3955366151 0.0000000000 0.7500000000  Biso 1.0 Sb
Sb8 1.0000000000 0.0000000000 0.3955361577 0.7500000000  Biso 1.0 Sb
Zr9 1.0000000000 0.3333366291 0.6666683146 0.0000000000  Biso 1.0 Zr
Zr10 1.0000000000 0.6666633709 0.3333316854 0.5000000000  Biso 1.0 Zr
Zr11 1.0000000000 0.6666633709 0.3333316854 0.0000000000  Biso 1.0 Zr
Zr12 1.0000000000 0.3333366291 0.6666683146 0.5000000000  Biso 1.0 Zr
Zr13 1.0000000000 0.7368555995 0.7368555995 0.2500000000  Biso 1.0 Zr
Zr14 1.0000000000 0.2631455971 0.0000000000 0.2500000000  Biso 1.0 Zr
Zr15 1.0000000000 0.0000000000 0.2631425072 0.2500000000  Biso 1.0 Zr
Zr16 1.0000000000 0.2631444005 0.2631444005 0.7500000000  Biso 1.0 Zr
Zr17 1.0000000000 0.7368544029 0.0000000000 0.7500000000  Biso 1.0 Zr
Zr18 1.0000000000 0.0000000000 0.7368574928 0.7500000000  Biso 1.0 Zr
