# AFLOW.org Repositories
# As1Sr2   [BCT,BCT2,tI12] (STD_PRIM doi:1
data_As1Sr2
_pd_phase_name As1Sr2
_cell_length_a  9.1361230459
_cell_length_b  9.1361230459
_cell_length_c  9.1361230459
_cell_angle_alpha  149.1040044814
_cell_angle_beta  149.1040044814
_cell_angle_gamma  44.2582393199
_symmetry_space_group_name_H-M  'P1'
_symmetry_Int_Tables_Number  1
loop_
_symmetry_equiv_pos_site_id
_symmetry_equiv_pos_as_xyz
  1  x,y,z
loop_
 _atom_site_label
 _atom_site_occupancy
 _atom_site_fract_x
 _atom_site_fract_y
 _atom_site_fract_z
 _atom_site_thermal_displace_type
 _atom_site_B_iso_or_equiv
 _atom_site_type_symbol
As1 1.0000000000 0.1335727854 0.1335727854 0.0000000000  Biso 1.0 As
As2 1.0000000000 0.8664272146 0.8664272146 0.0000000000  Biso 1.0 As
Sr3 1.0000000000 0.0000000000 0.5000000000 0.5000000000  Biso 1.0 Sr
Sr4 1.0000000000 0.5000000000 0.0000000000 0.5000000000  Biso 1.0 Sr
Sr5 1.0000000000 0.3185431476 0.3185431476 0.0000000000  Biso 1.0 Sr
Sr6 1.0000000000 0.6814568524 0.6814568524 0.0000000000  Biso 1.0 Sr
