# AFLOW.org Repositories
# As2Ba1Zn2   [ORC,ORC,oP20] (STD_PRIM doi
data_As2Ba1Zn2
_pd_phase_name As2Ba1Zn2
_cell_length_a  4.2654050607
_cell_length_b  10.0648190770
_cell_length_c  10.9385698315
_cell_angle_alpha  90.0000000000
_cell_angle_beta  90.0000000000
_cell_angle_gamma  90.0000000000
_symmetry_space_group_name_H-M  'P1'
_symmetry_Int_Tables_Number  1
loop_
_symmetry_equiv_pos_site_id
_symmetry_equiv_pos_as_xyz
  1  x,y,z
loop_
 _atom_site_label
 _atom_site_occupancy
 _atom_site_fract_x
 _atom_site_fract_y
 _atom_site_fract_z
 _atom_site_thermal_displace_type
 _atom_site_B_iso_or_equiv
 _atom_site_type_symbol
As1 1.0000000000 0.2500000000 0.4792538501 0.8392643935  Biso 1.0 As
As2 1.0000000000 0.7500000000 0.0207461499 0.3392643935  Biso 1.0 As
As3 1.0000000000 0.7500000000 0.5207461499 0.1607356065  Biso 1.0 As
As4 1.0000000000 0.2500000000 0.9792538501 0.6607356065  Biso 1.0 As
As5 1.0000000000 0.2500000000 0.3488829921 0.4611347493  Biso 1.0 As
As6 1.0000000000 0.7500000000 0.1511170079 0.9611347493  Biso 1.0 As
As7 1.0000000000 0.7500000000 0.6511170079 0.5388652507  Biso 1.0 As
As8 1.0000000000 0.2500000000 0.8488829921 0.0388652507  Biso 1.0 As
Ba9 1.0000000000 0.2500000000 0.2465482654 0.1753305802  Biso 1.0 Ba
Ba10 1.0000000000 0.7500000000 0.2534517346 0.6753305802  Biso 1.0 Ba
Ba11 1.0000000000 0.7500000000 0.7534517346 0.8246694198  Biso 1.0 Ba
Ba12 1.0000000000 0.2500000000 0.7465482654 0.3246694198  Biso 1.0 Ba
Zn13 1.0000000000 0.2500000000 0.0487203966 0.8852961208  Biso 1.0 Zn
Zn14 1.0000000000 0.7500000000 0.4512796034 0.3852961208  Biso 1.0 Zn
Zn15 1.0000000000 0.7500000000 0.9512796034 0.1147038792  Biso 1.0 Zn
Zn16 1.0000000000 0.2500000000 0.5487203966 0.6147038792  Biso 1.0 Zn
Zn17 1.0000000000 0.2500000000 0.0962081923 0.4508042172  Biso 1.0 Zn
Zn18 1.0000000000 0.7500000000 0.4037918077 0.9508042172  Biso 1.0 Zn
Zn19 1.0000000000 0.7500000000 0.9037918077 0.5491957828  Biso 1.0 Zn
Zn20 1.0000000000 0.2500000000 0.5962081923 0.0491957828  Biso 1.0 Zn
