# AFLOW.org Repositories
# As2Co1   [ORC,ORC,oP6] (STD_PRIM doi:10.
data_As2Co1
_pd_phase_name As2Co1
_cell_length_a  3.0367281150
_cell_length_b  5.1376936098
_cell_length_c  5.9159983165
_cell_angle_alpha  90.0000000000
_cell_angle_beta  90.0000000000
_cell_angle_gamma  90.0000000000
_symmetry_space_group_name_H-M  'P1'
_symmetry_Int_Tables_Number  1
loop_
_symmetry_equiv_pos_site_id
_symmetry_equiv_pos_as_xyz
  1  x,y,z
loop_
 _atom_site_label
 _atom_site_occupancy
 _atom_site_fract_x
 _atom_site_fract_y
 _atom_site_fract_z
 _atom_site_thermal_displace_type
 _atom_site_B_iso_or_equiv
 _atom_site_type_symbol
As1 1.0000000000 0.0000000000 0.1857488510 0.6353301016  Biso 1.0 As
As2 1.0000000000 0.0000000000 0.8142511490 0.3646698984  Biso 1.0 As
As3 1.0000000000 0.5000000000 0.3142511490 0.1353301016  Biso 1.0 As
As4 1.0000000000 0.5000000000 0.6857488510 0.8646698984  Biso 1.0 As
Co5 1.0000000000 0.0000000000 0.0000000000 0.0000000000  Biso 1.0 Co
Co6 1.0000000000 0.5000000000 0.5000000000 0.5000000000  Biso 1.0 Co
