# AFLOW.org Repositories
# As2Ca1Cd2   [HEX,HEX,hP5] (STD_PRIM doi:
data_As2Ca1Cd2
_pd_phase_name As2Ca1Cd2
_cell_length_a  4.4447689920
_cell_length_b  4.4447689920
_cell_length_c  7.2055764145
_cell_angle_alpha  90.0000000000
_cell_angle_beta  90.0000000000
_cell_angle_gamma  120.0000000000
_symmetry_space_group_name_H-M  'P1'
_symmetry_Int_Tables_Number  1
loop_
_symmetry_equiv_pos_site_id
_symmetry_equiv_pos_as_xyz
  1  x,y,z
loop_
 _atom_site_label
 _atom_site_occupancy
 _atom_site_fract_x
 _atom_site_fract_y
 _atom_site_fract_z
 _atom_site_thermal_displace_type
 _atom_site_B_iso_or_equiv
 _atom_site_type_symbol
As1 1.0000000000 0.3333377409 0.6666622591 0.2348852419  Biso 1.0 As
As2 1.0000000000 0.6666622591 0.3333377409 0.7651147581  Biso 1.0 As
Ca3 1.0000000000 0.0000000000 0.0000000000 0.0000000000  Biso 1.0 Ca
Cd4 1.0000000000 0.3333327975 0.6666672025 0.6336921439  Biso 1.0 Cd
Cd5 1.0000000000 0.6666672025 0.3333327975 0.3663078561  Biso 1.0 Cd
