# AFLOW.org Repositories
# As2Ca1Mg2   [HEX,HEX,hP5] (STD_PRIM doi:
data_As2Ca1Mg2
_pd_phase_name As2Ca1Mg2
_cell_length_a  4.3758273043
_cell_length_b  4.3758273043
_cell_length_c  7.1459636731
_cell_angle_alpha  90.0000000000
_cell_angle_beta  90.0000000000
_cell_angle_gamma  120.0000000000
_symmetry_space_group_name_H-M  'P1'
_symmetry_Int_Tables_Number  1
loop_
_symmetry_equiv_pos_site_id
_symmetry_equiv_pos_as_xyz
  1  x,y,z
loop_
 _atom_site_label
 _atom_site_occupancy
 _atom_site_fract_x
 _atom_site_fract_y
 _atom_site_fract_z
 _atom_site_thermal_displace_type
 _atom_site_B_iso_or_equiv
 _atom_site_type_symbol
As1 1.0000000000 0.6666713812 0.3333427623 0.2492955699  Biso 1.0 As
As2 1.0000000000 0.3333286188 0.6666572377 0.7507044301  Biso 1.0 As
Ca3 1.0000000000 0.0000000000 0.0000000000 0.0000000000  Biso 1.0 Ca
Mg4 1.0000000000 0.6666706017 0.3333412033 0.6336156233  Biso 1.0 Mg
Mg5 1.0000000000 0.3333293983 0.6666587967 0.3663843767  Biso 1.0 Mg
