# AFLOW.org Repositories
# As2Cd1   [BCT,BCT1,tI12] (STD_PRIM doi:1
data_As2Cd1
_pd_phase_name As2Cd1
_cell_length_a  6.2069866707
_cell_length_b  6.2069866707
_cell_length_c  6.2069866707
_cell_angle_alpha  98.5126290146
_cell_angle_beta  98.5126290146
_cell_angle_gamma  134.7443905350
_symmetry_space_group_name_H-M  'P1'
_symmetry_Int_Tables_Number  1
loop_
_symmetry_equiv_pos_site_id
_symmetry_equiv_pos_as_xyz
  1  x,y,z
loop_
 _atom_site_label
 _atom_site_occupancy
 _atom_site_fract_x
 _atom_site_fract_y
 _atom_site_fract_z
 _atom_site_thermal_displace_type
 _atom_site_B_iso_or_equiv
 _atom_site_type_symbol
As1 1.0000000000 0.9356060223 0.1250000000 0.3106060223  Biso 1.0 As
As2 1.0000000000 0.8143939777 0.6250000000 0.6893939777  Biso 1.0 As
As3 1.0000000000 0.3750000000 0.1856060223 0.3106060223  Biso 1.0 As
As4 1.0000000000 0.8750000000 0.0643939777 0.6893939777  Biso 1.0 As
Cd5 1.0000000000 0.5000000000 0.5000000000 0.0000000000  Biso 1.0 Cd
Cd6 1.0000000000 0.2500000000 0.7500000000 0.5000000000  Biso 1.0 Cd
