# AFLOW.org Repositories
# As2Ca1Ru2   [BCT,BCT2,tI10] (STD_PRIM do
data_As2Ca1Ru2
_pd_phase_name As2Ca1Ru2
_cell_length_a  5.9474542759
_cell_length_b  5.9474542759
_cell_length_c  5.9474542759
_cell_angle_alpha  138.4662925690
_cell_angle_beta  138.4662925690
_cell_angle_gamma  60.1895952761
_symmetry_space_group_name_H-M  'P1'
_symmetry_Int_Tables_Number  1
loop_
_symmetry_equiv_pos_site_id
_symmetry_equiv_pos_as_xyz
  1  x,y,z
loop_
 _atom_site_label
 _atom_site_occupancy
 _atom_site_fract_x
 _atom_site_fract_y
 _atom_site_fract_z
 _atom_site_thermal_displace_type
 _atom_site_B_iso_or_equiv
 _atom_site_type_symbol
As1 1.0000000000 0.3665825953 0.3665825953 0.0000000000  Biso 1.0 As
As2 1.0000000000 0.6334174047 0.6334174047 0.0000000000  Biso 1.0 As
Ca3 1.0000000000 0.0000000000 0.0000000000 0.0000000000  Biso 1.0 Ca
Ru4 1.0000000000 0.2500000000 0.7500000000 0.5000000000  Biso 1.0 Ru
Ru5 1.0000000000 0.7500000000 0.2500000000 0.5000000000  Biso 1.0 Ru
