# AFLOW.org Repositories
# As2Hf3   [ORC,ORC,oP20] (STD_PRIM doi:10
data_As2Hf3
_pd_phase_name As2Hf3
_cell_length_a  3.6725361015
_cell_length_b  10.1238136297
_cell_length_c  10.5404721645
_cell_angle_alpha  90.0000000000
_cell_angle_beta  90.0000000000
_cell_angle_gamma  90.0000000000
_symmetry_space_group_name_H-M  'P1'
_symmetry_Int_Tables_Number  1
loop_
_symmetry_equiv_pos_site_id
_symmetry_equiv_pos_as_xyz
  1  x,y,z
loop_
 _atom_site_label
 _atom_site_occupancy
 _atom_site_fract_x
 _atom_site_fract_y
 _atom_site_fract_z
 _atom_site_thermal_displace_type
 _atom_site_B_iso_or_equiv
 _atom_site_type_symbol
As1 1.0000000000 0.7500000000 0.6776336023 0.9680297186  Biso 1.0 As
As2 1.0000000000 0.2500000000 0.1776336023 0.5319702814  Biso 1.0 As
As3 1.0000000000 0.2500000000 0.3223663977 0.0319702814  Biso 1.0 As
As4 1.0000000000 0.7500000000 0.8223663977 0.4680297186  Biso 1.0 As
As5 1.0000000000 0.2500000000 0.0000000000 0.1944151833  Biso 1.0 As
As6 1.0000000000 0.7500000000 0.4990569008 0.3055848167  Biso 1.0 As
As7 1.0000000000 0.7500000000 0.0000000000 0.8055848167  Biso 1.0 As
As8 1.0000000000 0.2500000000 0.5009430992 0.6944151833  Biso 1.0 As
Hf9 1.0000000000 0.7500000000 0.1248024030 0.0446425111  Biso 1.0 Hf
Hf10 1.0000000000 0.2500000000 0.6248024030 0.4553574889  Biso 1.0 Hf
Hf11 1.0000000000 0.2500000000 0.8751975970 0.9553574889  Biso 1.0 Hf
Hf12 1.0000000000 0.7500000000 0.3751975970 0.5446425111  Biso 1.0 Hf
Hf13 1.0000000000 0.2500000000 0.5683153436 0.1261941012  Biso 1.0 Hf
Hf14 1.0000000000 0.7500000000 0.0683153436 0.3738058988  Biso 1.0 Hf
Hf15 1.0000000000 0.7500000000 0.4316846564 0.8738058988  Biso 1.0 Hf
Hf16 1.0000000000 0.2500000000 0.9316846564 0.6261941012  Biso 1.0 Hf
Hf17 1.0000000000 0.7500000000 0.7939096527 0.2127534140  Biso 1.0 Hf
Hf18 1.0000000000 0.2500000000 0.2939096527 0.2872465860  Biso 1.0 Hf
Hf19 1.0000000000 0.2500000000 0.2060903473 0.7872465860  Biso 1.0 Hf
Hf20 1.0000000000 0.7500000000 0.7060903473 0.7127534140  Biso 1.0 Hf
