# AFLOW.org Repositories
# As2Ho1Ni4   [TET,TET,tP14] (STD_PRIM doi
data_As2Ho1Ni4
_pd_phase_name As2Ho1Ni4
_cell_length_a  7.2179520162
_cell_length_b  7.2179520162
_cell_length_c  3.7489894288
_cell_angle_alpha  90.0000000000
_cell_angle_beta  90.0000000000
_cell_angle_gamma  90.0000000000
_symmetry_space_group_name_H-M  'P1'
_symmetry_Int_Tables_Number  1
loop_
_symmetry_equiv_pos_site_id
_symmetry_equiv_pos_as_xyz
  1  x,y,z
loop_
 _atom_site_label
 _atom_site_occupancy
 _atom_site_fract_x
 _atom_site_fract_y
 _atom_site_fract_z
 _atom_site_thermal_displace_type
 _atom_site_B_iso_or_equiv
 _atom_site_type_symbol
As1 1.0000000000 0.2186503854 0.7813496146 0.0000000000  Biso 1.0 As
As2 1.0000000000 0.7813496146 0.2186503854 0.0000000000  Biso 1.0 As
As3 1.0000000000 0.7186503854 0.7186503854 0.5000000000  Biso 1.0 As
As4 1.0000000000 0.2813496146 0.2813496146 0.5000000000  Biso 1.0 As
Ho5 1.0000000000 0.0000000000 0.0000000000 0.5000000000  Biso 1.0 Ho
Ho6 1.0000000000 0.5000000000 0.5000000000 0.0000000000  Biso 1.0 Ho
Ni7 1.0000000000 0.0892591058 0.3467747755 0.0000000000  Biso 1.0 Ni
Ni8 1.0000000000 0.9107408942 0.6532252245 0.0000000000  Biso 1.0 Ni
Ni9 1.0000000000 0.1532252245 0.5892591058 0.5000000000  Biso 1.0 Ni
Ni10 1.0000000000 0.8467747755 0.4107408942 0.5000000000  Biso 1.0 Ni
Ni11 1.0000000000 0.4107408942 0.8467747755 0.5000000000  Biso 1.0 Ni
Ni12 1.0000000000 0.5892591058 0.1532252245 0.5000000000  Biso 1.0 Ni
Ni13 1.0000000000 0.3467747755 0.0892591058 0.0000000000  Biso 1.0 Ni
Ni14 1.0000000000 0.6532252245 0.9107408942 0.0000000000  Biso 1.0 Ni
