# AFLOW.org Repositories
# As2Hf1   [ORC,ORC,oP12] (STD_PRIM doi:10
data_As2Hf1
_pd_phase_name As2Hf1
_cell_length_a  3.7080717326
_cell_length_b  6.8276042460
_cell_length_c  9.0211766673
_cell_angle_alpha  90.0000000000
_cell_angle_beta  90.0000000000
_cell_angle_gamma  90.0000000000
_symmetry_space_group_name_H-M  'P1'
_symmetry_Int_Tables_Number  1
loop_
_symmetry_equiv_pos_site_id
_symmetry_equiv_pos_as_xyz
  1  x,y,z
loop_
 _atom_site_label
 _atom_site_occupancy
 _atom_site_fract_x
 _atom_site_fract_y
 _atom_site_fract_z
 _atom_site_thermal_displace_type
 _atom_site_B_iso_or_equiv
 _atom_site_type_symbol
As1 1.0000000000 0.2500000000 0.0802565586 0.8530406040  Biso 1.0 As
As2 1.0000000000 0.7500000000 0.4197434414 0.3530406040  Biso 1.0 As
As3 1.0000000000 0.7500000000 0.9197434414 0.1469593960  Biso 1.0 As
As4 1.0000000000 0.2500000000 0.5802565586 0.6469593960  Biso 1.0 As
As5 1.0000000000 0.2500000000 0.1202753119 0.4572705730  Biso 1.0 As
As6 1.0000000000 0.7500000000 0.3797246881 0.9572705730  Biso 1.0 As
As7 1.0000000000 0.7500000000 0.8797246881 0.5427294270  Biso 1.0 As
As8 1.0000000000 0.2500000000 0.6202753119 0.0427294270  Biso 1.0 As
Hf9 1.0000000000 0.2500000000 0.2283867049 0.1619311823  Biso 1.0 Hf
Hf10 1.0000000000 0.7500000000 0.2716132951 0.6619311823  Biso 1.0 Hf
Hf11 1.0000000000 0.7500000000 0.7716132951 0.8380688177  Biso 1.0 Hf
Hf12 1.0000000000 0.2500000000 0.7283867049 0.3380688177  Biso 1.0 Hf
