# AFLOW.org Repositories
# As2Hg1O6   [HEX,HEX,hP9] (STD_PRIM doi:1
data_As2Hg1O6
_pd_phase_name As2Hg1O6
_cell_length_a  4.9567177725
_cell_length_b  4.9567177725
_cell_length_c  5.1081043420
_cell_angle_alpha  90.0000000000
_cell_angle_beta  90.0000000000
_cell_angle_gamma  120.0000000000
_symmetry_space_group_name_H-M  'P1'
_symmetry_Int_Tables_Number  1
loop_
_symmetry_equiv_pos_site_id
_symmetry_equiv_pos_as_xyz
  1  x,y,z
loop_
 _atom_site_label
 _atom_site_occupancy
 _atom_site_fract_x
 _atom_site_fract_y
 _atom_site_fract_z
 _atom_site_thermal_displace_type
 _atom_site_B_iso_or_equiv
 _atom_site_type_symbol
As1 1.0000000000 0.6666677234 0.3333355196 0.5000000021  Biso 1.0 As
As2 1.0000000000 0.3333322294 0.6666644954 0.5000000015  Biso 1.0 As
Hg3 1.0000000000 0.0000000000 0.0000000000 0.0000000000  Biso 1.0 Hg
O4 1.0000000000 0.0000000000 0.6197433385 0.2953351921  Biso 1.0 O
O5 1.0000000000 0.3802565415 0.3802565415 0.2953350937  Biso 1.0 O
O6 1.0000000000 0.6197497063 0.0000000000 0.2953314256  Biso 1.0 O
O7 1.0000000000 0.6197434320 0.6197434320 0.7046648386  Biso 1.0 O
O8 1.0000000000 0.0000000000 0.3802566667 0.7046646376  Biso 1.0 O
O9 1.0000000000 0.3802503165 0.0000000000 0.7046688151  Biso 1.0 O
