# AFLOW.org Repositories
# As2Ir2La1   [TET,TET,tP10] (STD_PRIM doi
data_As2Ir2La1
_pd_phase_name As2Ir2La1
_cell_length_a  4.3202091756
_cell_length_b  4.3202091756
_cell_length_c  10.0998541982
_cell_angle_alpha  90.0000000000
_cell_angle_beta  90.0000000000
_cell_angle_gamma  90.0000000000
_symmetry_space_group_name_H-M  'P1'
_symmetry_Int_Tables_Number  1
loop_
_symmetry_equiv_pos_site_id
_symmetry_equiv_pos_as_xyz
  1  x,y,z
loop_
 _atom_site_label
 _atom_site_occupancy
 _atom_site_fract_x
 _atom_site_fract_y
 _atom_site_fract_z
 _atom_site_thermal_displace_type
 _atom_site_B_iso_or_equiv
 _atom_site_type_symbol
As1 1.0000000000 0.7500000000 0.2500000000 0.0000000000  Biso 1.0 As
As2 1.0000000000 0.2500000000 0.7500000000 0.0000000000  Biso 1.0 As
As3 1.0000000000 0.2500000000 0.2500000000 0.3614125584  Biso 1.0 As
As4 1.0000000000 0.7500000000 0.7500000000 0.6385874416  Biso 1.0 As
Ir5 1.0000000000 0.7500000000 0.2500000000 0.5000000000  Biso 1.0 Ir
Ir6 1.0000000000 0.2500000000 0.7500000000 0.5000000000  Biso 1.0 Ir
Ir7 1.0000000000 0.2500000000 0.2500000000 0.1161299209  Biso 1.0 Ir
Ir8 1.0000000000 0.7500000000 0.7500000000 0.8838700791  Biso 1.0 Ir
La9 1.0000000000 0.2500000000 0.2500000000 0.7533997706  Biso 1.0 La
La10 1.0000000000 0.7500000000 0.7500000000 0.2466002294  Biso 1.0 La
