# AFLOW.org Repositories
# As2K2Ni1   [ORCC,ORCC,oS20] (STD_PRIM do
data_As2K2Ni1
_pd_phase_name As2K2Ni1
_cell_length_a  7.7389850746
_cell_length_b  7.7389850746
_cell_length_c  5.7875525803
_cell_angle_alpha  90.0000000000
_cell_angle_beta  90.0000000000
_cell_angle_gamma  129.0104727681
_symmetry_space_group_name_H-M  'P1'
_symmetry_Int_Tables_Number  1
loop_
_symmetry_equiv_pos_site_id
_symmetry_equiv_pos_as_xyz
  1  x,y,z
loop_
 _atom_site_label
 _atom_site_occupancy
 _atom_site_fract_x
 _atom_site_fract_y
 _atom_site_fract_z
 _atom_site_thermal_displace_type
 _atom_site_B_iso_or_equiv
 _atom_site_type_symbol
As1 1.0000000000 0.0816783433 0.2861875647 0.2500000000  Biso 1.0 As
As2 1.0000000000 0.9183216567 0.7138124353 0.7500000000  Biso 1.0 As
As3 1.0000000000 0.7138124353 0.9183216567 0.2500000000  Biso 1.0 As
As4 1.0000000000 0.2861875647 0.0816783433 0.7500000000  Biso 1.0 As
K5 1.0000000000 0.2080676708 0.7919323292 0.2500000000  Biso 1.0 K
K6 1.0000000000 0.7919323292 0.2080676708 0.7500000000  Biso 1.0 K
K7 1.0000000000 0.5908100129 0.4091899871 0.2500000000  Biso 1.0 K
K8 1.0000000000 0.4091899871 0.5908100129 0.7500000000  Biso 1.0 K
Ni9 1.0000000000 0.0000000000 0.0000000000 0.0000000000  Biso 1.0 Ni
Ni10 1.0000000000 0.0000000000 0.0000000000 0.5000000000  Biso 1.0 Ni
