# AFLOW.org Repositories
# As2Mg3   [BCC,BCC,cI80] (STD_PRIM doi:10
data_As2Mg3
_pd_phase_name As2Mg3
_cell_length_a  10.7930689438
_cell_length_b  10.7930689438
_cell_length_c  10.7930689438
_cell_angle_alpha  109.4712206345
_cell_angle_beta  109.4712206345
_cell_angle_gamma  109.4712206345
_symmetry_space_group_name_H-M  'P1'
_symmetry_Int_Tables_Number  1
loop_
_symmetry_equiv_pos_site_id
_symmetry_equiv_pos_as_xyz
  1  x,y,z
loop_
 _atom_site_label
 _atom_site_occupancy
 _atom_site_fract_x
 _atom_site_fract_y
 _atom_site_fract_z
 _atom_site_thermal_displace_type
 _atom_site_B_iso_or_equiv
 _atom_site_type_symbol
As1 1.0000000000 0.0000000000 0.5000000000 0.0000000000  Biso 1.0 As
As2 1.0000000000 0.0000000000 0.0000000000 0.5000000000  Biso 1.0 As
As3 1.0000000000 0.5000000000 0.5000000000 0.5000000000  Biso 1.0 As
As4 1.0000000000 0.5000000000 0.0000000000 0.0000000000  Biso 1.0 As
As5 1.0000000000 0.7500000000 0.9780921397 0.7280921397  Biso 1.0 As
As6 1.0000000000 0.2500000000 0.5219078603 0.7719078603  Biso 1.0 As
As7 1.0000000000 0.9780921397 0.2280921397 0.2500000000  Biso 1.0 As
As8 1.0000000000 0.5219078603 0.2719078603 0.7500000000  Biso 1.0 As
As9 1.0000000000 0.2719078603 0.2500000000 0.0219078603  Biso 1.0 As
As10 1.0000000000 0.2280921397 0.7500000000 0.4780921397  Biso 1.0 As
As11 1.0000000000 0.2500000000 0.0219078603 0.2719078603  Biso 1.0 As
As12 1.0000000000 0.7500000000 0.4780921397 0.2280921397  Biso 1.0 As
As13 1.0000000000 0.0219078603 0.7719078603 0.7500000000  Biso 1.0 As
As14 1.0000000000 0.4780921397 0.7280921397 0.2500000000  Biso 1.0 As
As15 1.0000000000 0.7280921397 0.7500000000 0.9780921397  Biso 1.0 As
As16 1.0000000000 0.7719078603 0.2500000000 0.5219078603  Biso 1.0 As
Mg17 1.0000000000 0.7657668941 0.5307636842 0.0068676837  Biso 1.0 Mg
Mg18 1.0000000000 0.9761039996 0.9692363158 0.2350032100  Biso 1.0 Mg
Mg19 1.0000000000 0.5238960004 0.2588992104 0.4931323163  Biso 1.0 Mg
Mg20 1.0000000000 0.7342331059 0.2411007896 0.2649967900  Biso 1.0 Mg
Mg21 1.0000000000 0.2411007896 0.7649967900 0.2342331059  Biso 1.0 Mg
Mg22 1.0000000000 0.2588992104 0.9931323163 0.0238960004  Biso 1.0 Mg
Mg23 1.0000000000 0.9692363158 0.7350032100 0.4761039996  Biso 1.0 Mg
Mg24 1.0000000000 0.5307636842 0.5068676837 0.2657668941  Biso 1.0 Mg
Mg25 1.0000000000 0.9931323163 0.5238960004 0.7588992104  Biso 1.0 Mg
Mg26 1.0000000000 0.7649967900 0.7342331059 0.7411007896  Biso 1.0 Mg
Mg27 1.0000000000 0.5068676837 0.7657668941 0.0307636842  Biso 1.0 Mg
Mg28 1.0000000000 0.7350032100 0.9761039996 0.4692363158  Biso 1.0 Mg
Mg29 1.0000000000 0.2342331059 0.4692363158 0.9931323163  Biso 1.0 Mg
Mg30 1.0000000000 0.0238960004 0.0307636842 0.7649967900  Biso 1.0 Mg
Mg31 1.0000000000 0.4761039996 0.7411007896 0.5068676837  Biso 1.0 Mg
Mg32 1.0000000000 0.2657668941 0.7588992104 0.7350032100  Biso 1.0 Mg
Mg33 1.0000000000 0.7588992104 0.2350032100 0.7657668941  Biso 1.0 Mg
Mg34 1.0000000000 0.7411007896 0.0068676837 0.9761039996  Biso 1.0 Mg
Mg35 1.0000000000 0.0307636842 0.2649967900 0.5238960004  Biso 1.0 Mg
Mg36 1.0000000000 0.4692363158 0.4931323163 0.7342331059  Biso 1.0 Mg
Mg37 1.0000000000 0.0068676837 0.4761039996 0.2411007896  Biso 1.0 Mg
Mg38 1.0000000000 0.2350032100 0.2657668941 0.2588992104  Biso 1.0 Mg
Mg39 1.0000000000 0.4931323163 0.2342331059 0.9692363158  Biso 1.0 Mg
Mg40 1.0000000000 0.2649967900 0.0238960004 0.5307636842  Biso 1.0 Mg
