# AFLOW.org Repositories
# As2Ni1Tb2   [HEX,HEX,hP10] (STD_PRIM doi
data_As2Ni1Tb2
_pd_phase_name As2Ni1Tb2
_cell_length_a  4.1074216751
_cell_length_b  4.1074216751
_cell_length_c  14.3017133510
_cell_angle_alpha  90.0000000000
_cell_angle_beta  90.0000000000
_cell_angle_gamma  120.0000000000
_symmetry_space_group_name_H-M  'P1'
_symmetry_Int_Tables_Number  1
loop_
_symmetry_equiv_pos_site_id
_symmetry_equiv_pos_as_xyz
  1  x,y,z
loop_
 _atom_site_label
 _atom_site_occupancy
 _atom_site_fract_x
 _atom_site_fract_y
 _atom_site_fract_z
 _atom_site_thermal_displace_type
 _atom_site_B_iso_or_equiv
 _atom_site_type_symbol
As1 1.0000000000 0.0000000000 0.0000000000 0.0000000000  Biso 1.0 As
As2 1.0000000000 0.0000000000 0.0000000000 0.5000000000  Biso 1.0 As
As3 1.0000000000 0.3333472202 0.6666736101 0.7500000000  Biso 1.0 As
As4 1.0000000000 0.6666527798 0.3333263899 0.2500000000  Biso 1.0 As
Ni5 1.0000000000 0.0000000000 0.0000000000 0.2500000000  Biso 1.0 Ni
Ni6 1.0000000000 0.0000000000 0.0000000000 0.7500000000  Biso 1.0 Ni
Tb7 1.0000000000 0.3333445073 0.6666722537 0.1175789464  Biso 1.0 Tb
Tb8 1.0000000000 0.6666554927 0.3333277463 0.6175789464  Biso 1.0 Tb
Tb9 1.0000000000 0.6666554927 0.3333277463 0.8824210536  Biso 1.0 Tb
Tb10 1.0000000000 0.3333445073 0.6666722537 0.3824210536  Biso 1.0 Tb
