# AFLOW.org Repositories
# As2Os1   [ORC,ORC,oP6] (STD_PRIM doi:10.
data_As2Os1
_pd_phase_name As2Os1
_cell_length_a  3.0470057864
_cell_length_b  5.4647931044
_cell_length_c  6.2698339686
_cell_angle_alpha  90.0000000000
_cell_angle_beta  90.0000000000
_cell_angle_gamma  90.0000000000
_symmetry_space_group_name_H-M  'P1'
_symmetry_Int_Tables_Number  1
loop_
_symmetry_equiv_pos_site_id
_symmetry_equiv_pos_as_xyz
  1  x,y,z
loop_
 _atom_site_label
 _atom_site_occupancy
 _atom_site_fract_x
 _atom_site_fract_y
 _atom_site_fract_z
 _atom_site_thermal_displace_type
 _atom_site_B_iso_or_equiv
 _atom_site_type_symbol
As1 1.0000000000 0.0000000000 0.1704351689 0.6339433709  Biso 1.0 As
As2 1.0000000000 0.0000000000 0.8295648311 0.3660566291  Biso 1.0 As
As3 1.0000000000 0.5000000000 0.3295648311 0.1339433709  Biso 1.0 As
As4 1.0000000000 0.5000000000 0.6704351689 0.8660566291  Biso 1.0 As
Os5 1.0000000000 0.0000000000 0.0000000000 0.0000000000  Biso 1.0 Os
Os6 1.0000000000 0.5000000000 0.5000000000 0.5000000000  Biso 1.0 Os
