# AFLOW.org Repositories
# As2Pd1   [CUB,CUB,cP12] (STD_PRIM doi:10
data_As2Pd1
_pd_phase_name As2Pd1
_cell_length_a  6.0730497090
_cell_length_b  6.0730497090
_cell_length_c  6.0730497090
_cell_angle_alpha  90.0000000000
_cell_angle_beta  90.0000000000
_cell_angle_gamma  90.0000000000
_symmetry_space_group_name_H-M  'P1'
_symmetry_Int_Tables_Number  1
loop_
_symmetry_equiv_pos_site_id
_symmetry_equiv_pos_as_xyz
  1  x,y,z
loop_
 _atom_site_label
 _atom_site_occupancy
 _atom_site_fract_x
 _atom_site_fract_y
 _atom_site_fract_z
 _atom_site_thermal_displace_type
 _atom_site_B_iso_or_equiv
 _atom_site_type_symbol
As1 1.0000000000 0.6168281114 0.6168281114 0.3831718886  Biso 1.0 As
As2 1.0000000000 0.8831718886 0.3831718886 0.8831718886  Biso 1.0 As
As3 1.0000000000 0.3831718886 0.1168281114 0.1168281114  Biso 1.0 As
As4 1.0000000000 0.1168281114 0.8831718886 0.6168281114  Biso 1.0 As
As5 1.0000000000 0.3831718886 0.3831718886 0.6168281114  Biso 1.0 As
As6 1.0000000000 0.1168281114 0.6168281114 0.1168281114  Biso 1.0 As
As7 1.0000000000 0.6168281114 0.8831718886 0.8831718886  Biso 1.0 As
As8 1.0000000000 0.8831718886 0.1168281114 0.3831718886  Biso 1.0 As
Pd9 1.0000000000 0.0000000000 0.0000000000 0.0000000000  Biso 1.0 Pd
Pd10 1.0000000000 0.5000000000 0.0000000000 0.5000000000  Biso 1.0 Pd
Pd11 1.0000000000 0.0000000000 0.5000000000 0.5000000000  Biso 1.0 Pd
Pd12 1.0000000000 0.5000000000 0.5000000000 0.0000000000  Biso 1.0 Pd
