# AFLOW.org Repositories
# As2Rh2Sr1   [BCT,BCT2,tI10] (STD_PRIM do
data_As2Rh2Sr1
_pd_phase_name As2Rh2Sr1
_cell_length_a  6.3304999698
_cell_length_b  6.3304999698
_cell_length_c  6.3304999698
_cell_angle_alpha  140.8533156168
_cell_angle_beta  140.8533156168
_cell_angle_gamma  56.5599234496
_symmetry_space_group_name_H-M  'P1'
_symmetry_Int_Tables_Number  1
loop_
_symmetry_equiv_pos_site_id
_symmetry_equiv_pos_as_xyz
  1  x,y,z
loop_
 _atom_site_label
 _atom_site_occupancy
 _atom_site_fract_x
 _atom_site_fract_y
 _atom_site_fract_z
 _atom_site_thermal_displace_type
 _atom_site_B_iso_or_equiv
 _atom_site_type_symbol
As1 1.0000000000 0.3633138032 0.3633138032 0.0000000000  Biso 1.0 As
As2 1.0000000000 0.6366861968 0.6366861968 0.0000000000  Biso 1.0 As
Rh3 1.0000000000 0.2500000000 0.7500000000 0.5000000000  Biso 1.0 Rh
Rh4 1.0000000000 0.7500000000 0.2500000000 0.5000000000  Biso 1.0 Rh
Sr5 1.0000000000 0.0000000000 0.0000000000 0.0000000000  Biso 1.0 Sr
