# AFLOW.org Repositories
# As2Sc3   [ORC,ORC,oP20] (STD_PRIM doi:10
data_As2Sc3
_pd_phase_name As2Sc3
_cell_length_a  3.8751390674
_cell_length_b  10.5485605394
_cell_length_c  10.5722404056
_cell_angle_alpha  90.0000000000
_cell_angle_beta  90.0000000000
_cell_angle_gamma  90.0000000000
_symmetry_space_group_name_H-M  'P1'
_symmetry_Int_Tables_Number  1
loop_
_symmetry_equiv_pos_site_id
_symmetry_equiv_pos_as_xyz
  1  x,y,z
loop_
 _atom_site_label
 _atom_site_occupancy
 _atom_site_fract_x
 _atom_site_fract_y
 _atom_site_fract_z
 _atom_site_thermal_displace_type
 _atom_site_B_iso_or_equiv
 _atom_site_type_symbol
As1 1.0000000000 0.2500000000 0.3138591786 0.5072067340  Biso 1.0 As
As2 1.0000000000 0.7500000000 0.1861408214 0.0072067340  Biso 1.0 As
As3 1.0000000000 0.7500000000 0.6861408214 0.4927932660  Biso 1.0 As
As4 1.0000000000 0.2500000000 0.8138591786 0.9927932660  Biso 1.0 As
As5 1.0000000000 0.2500000000 0.4852944106 0.1778461460  Biso 1.0 As
As6 1.0000000000 0.7500000000 0.0147055894 0.6778461460  Biso 1.0 As
As7 1.0000000000 0.7500000000 0.5147055894 0.8221538540  Biso 1.0 As
As8 1.0000000000 0.2500000000 0.9852944106 0.3221538540  Biso 1.0 As
Sc9 1.0000000000 0.2500000000 0.0502765573 0.8669983117  Biso 1.0 Sc
Sc10 1.0000000000 0.7500000000 0.4497234427 0.3669983117  Biso 1.0 Sc
Sc11 1.0000000000 0.7500000000 0.9497234427 0.1330016883  Biso 1.0 Sc
Sc12 1.0000000000 0.2500000000 0.5502765573 0.6330016883  Biso 1.0 Sc
Sc13 1.0000000000 0.2500000000 0.3710314774 0.9364715495  Biso 1.0 Sc
Sc14 1.0000000000 0.7500000000 0.1289685226 0.4364715495  Biso 1.0 Sc
Sc15 1.0000000000 0.7500000000 0.6289685226 0.0635284505  Biso 1.0 Sc
Sc16 1.0000000000 0.2500000000 0.8710314774 0.5635284505  Biso 1.0 Sc
Sc17 1.0000000000 0.2500000000 0.2234897836 0.2046122609  Biso 1.0 Sc
Sc18 1.0000000000 0.7500000000 0.2765102164 0.7046122609  Biso 1.0 Sc
Sc19 1.0000000000 0.7500000000 0.7765102164 0.7953877391  Biso 1.0 Sc
Sc20 1.0000000000 0.2500000000 0.7234897836 0.2953877391  Biso 1.0 Sc
