# AFLOW.org Repositories
# As2Th1   [ORC,ORC,oP12] (STD_PRIM doi:10
data_As2Th1
_pd_phase_name As2Th1
_cell_length_a  4.0716213325
_cell_length_b  7.4562647346
_cell_length_c  10.0934251894
_cell_angle_alpha  90.0000000000
_cell_angle_beta  90.0000000000
_cell_angle_gamma  90.0000000000
_symmetry_space_group_name_H-M  'P1'
_symmetry_Int_Tables_Number  1
loop_
_symmetry_equiv_pos_site_id
_symmetry_equiv_pos_as_xyz
  1  x,y,z
loop_
 _atom_site_label
 _atom_site_occupancy
 _atom_site_fract_x
 _atom_site_fract_y
 _atom_site_fract_z
 _atom_site_thermal_displace_type
 _atom_site_B_iso_or_equiv
 _atom_site_type_symbol
As1 1.0000000000 0.2500000000 0.8926314460 0.3425768706  Biso 1.0 As
As2 1.0000000000 0.7500000000 0.6073685540 0.8425768706  Biso 1.0 As
As3 1.0000000000 0.7500000000 0.1073685540 0.6574231294  Biso 1.0 As
As4 1.0000000000 0.2500000000 0.3926314460 0.1574231294  Biso 1.0 As
As5 1.0000000000 0.2500000000 0.8998557795 0.9585211269  Biso 1.0 As
As6 1.0000000000 0.7500000000 0.6001442205 0.4585211269  Biso 1.0 As
As7 1.0000000000 0.7500000000 0.1001442205 0.0414788731  Biso 1.0 As
As8 1.0000000000 0.2500000000 0.3998557795 0.5414788731  Biso 1.0 As
Th9 1.0000000000 0.2500000000 0.2981016623 0.8462288216  Biso 1.0 Th
Th10 1.0000000000 0.7500000000 0.2018983377 0.3462288216  Biso 1.0 Th
Th11 1.0000000000 0.7500000000 0.7018983377 0.1537711784  Biso 1.0 Th
Th12 1.0000000000 0.2500000000 0.7981016623 0.6537711784  Biso 1.0 Th
