# AFLOW.org Repositories
# As2Zr1   [ORC,ORC,oP12] (STD_PRIM doi:10
data_As2Zr1
_pd_phase_name As2Zr1
_cell_length_a  7.0222021458
_cell_length_b  7.0222021458
_cell_length_c  7.0222021458
_cell_angle_alpha  146.5231916624
_cell_angle_beta  130.9591247713
_cell_angle_gamma  60.6837602746
_symmetry_space_group_name_H-M  'P1'
_symmetry_Int_Tables_Number  1
loop_
_symmetry_equiv_pos_site_id
_symmetry_equiv_pos_as_xyz
  1  x,y,z
loop_
 _atom_site_label
 _atom_site_occupancy
 _atom_site_fract_x
 _atom_site_fract_y
 _atom_site_fract_z
 _atom_site_thermal_displace_type
 _atom_site_B_iso_or_equiv
 _atom_site_type_symbol
As1 1.0000000000 0.3802989737 0.6067660077 0.2735329660  Biso 1.0 As
As2 1.0000000000 0.6208990706 0.3932652309 0.7276338397  Biso 1.0 As
As3 1.0000000000 0.8346333160 0.6067503884 0.7278829276  Biso 1.0 As
As4 1.0000000000 0.1665647283 0.3932808502 0.2732838781  Biso 1.0 As
Zr5 1.0000000000 0.7155119324 0.2148810324 0.0000000000  Biso 1.0 Zr
Zr6 1.0000000000 0.2856861119 0.7851502062 0.0000000000  Biso 1.0 Zr
