# AFLOW.org Repositories
# As2Zr3   [ORC,ORC,oP20] (STD_PRIM doi:10
data_As2Zr3
_pd_phase_name As2Zr3
_cell_length_a  3.7739579562
_cell_length_b  10.1816241053
_cell_length_c  10.6175084254
_cell_angle_alpha  90.0000000000
_cell_angle_beta  90.0000000000
_cell_angle_gamma  90.0000000000
_symmetry_space_group_name_H-M  'P1'
_symmetry_Int_Tables_Number  1
loop_
_symmetry_equiv_pos_site_id
_symmetry_equiv_pos_as_xyz
  1  x,y,z
loop_
 _atom_site_label
 _atom_site_occupancy
 _atom_site_fract_x
 _atom_site_fract_y
 _atom_site_fract_z
 _atom_site_thermal_displace_type
 _atom_site_B_iso_or_equiv
 _atom_site_type_symbol
As1 1.0000000000 0.7500000000 0.6797333636 0.9717396249  Biso 1.0 As
As2 1.0000000000 0.2500000000 0.1797333636 0.5282603751  Biso 1.0 As
As3 1.0000000000 0.2500000000 0.3202666364 0.0282603751  Biso 1.0 As
As4 1.0000000000 0.7500000000 0.8202666364 0.4717396249  Biso 1.0 As
As5 1.0000000000 0.2500000000 0.0000000000 0.1943799296  Biso 1.0 As
As6 1.0000000000 0.7500000000 0.4997715405 0.3056200704  Biso 1.0 As
As7 1.0000000000 0.7500000000 0.0000000000 0.8056200704  Biso 1.0 As
As8 1.0000000000 0.2500000000 0.5002284595 0.6943799296  Biso 1.0 As
Zr9 1.0000000000 0.7500000000 0.1249421455 0.0446787347  Biso 1.0 Zr
Zr10 1.0000000000 0.2500000000 0.6249421455 0.4553212653  Biso 1.0 Zr
Zr11 1.0000000000 0.2500000000 0.8750578545 0.9553212653  Biso 1.0 Zr
Zr12 1.0000000000 0.7500000000 0.3750578545 0.5446787347  Biso 1.0 Zr
Zr13 1.0000000000 0.2500000000 0.5673920041 0.1239146181  Biso 1.0 Zr
Zr14 1.0000000000 0.7500000000 0.0673920041 0.3760853819  Biso 1.0 Zr
Zr15 1.0000000000 0.7500000000 0.4326079959 0.8760853819  Biso 1.0 Zr
Zr16 1.0000000000 0.2500000000 0.9326079959 0.6239146181  Biso 1.0 Zr
Zr17 1.0000000000 0.7500000000 0.7950822391 0.2149942104  Biso 1.0 Zr
Zr18 1.0000000000 0.2500000000 0.2950822391 0.2850057896  Biso 1.0 Zr
Zr19 1.0000000000 0.2500000000 0.2049177609 0.7850057896  Biso 1.0 Zr
Zr20 1.0000000000 0.7500000000 0.7049177609 0.7149942104  Biso 1.0 Zr
