# AFLOW.org Repositories
# As3V5   [BCT,BCT1,tI32] (STD_PRIM doi:10
data_As3V5
_pd_phase_name As3V5
_cell_length_a  7.2041560025
_cell_length_b  7.2041560025
_cell_length_c  7.2041560025
_cell_angle_alpha  96.7213642263
_cell_angle_beta  96.7213642263
_cell_angle_gamma  139.9887201962
_symmetry_space_group_name_H-M  'P1'
_symmetry_Int_Tables_Number  1
loop_
_symmetry_equiv_pos_site_id
_symmetry_equiv_pos_as_xyz
  1  x,y,z
loop_
 _atom_site_label
 _atom_site_occupancy
 _atom_site_fract_x
 _atom_site_fract_y
 _atom_site_fract_z
 _atom_site_thermal_displace_type
 _atom_site_B_iso_or_equiv
 _atom_site_type_symbol
As1 1.0000000000 0.7500000000 0.7500000000 0.0000000000  Biso 1.0 As
As2 1.0000000000 0.2500000000 0.2500000000 0.0000000000  Biso 1.0 As
As3 1.0000000000 0.1631686020 0.6631686020 0.8263372041  Biso 1.0 As
As4 1.0000000000 0.8368313980 0.3368313980 0.1736627959  Biso 1.0 As
As5 1.0000000000 0.3368313980 0.1631686020 0.5000000000  Biso 1.0 As
As6 1.0000000000 0.6631686020 0.8368313980 0.5000000000  Biso 1.0 As
V7 1.0000000000 0.7500000000 0.2500000000 0.5000000000  Biso 1.0 V
V8 1.0000000000 0.2500000000 0.7500000000 0.5000000000  Biso 1.0 V
V9 1.0000000000 0.0798376379 0.2268635216 0.3067011594  Biso 1.0 V
V10 1.0000000000 0.9201623621 0.7731364784 0.6932988406  Biso 1.0 V
V11 1.0000000000 0.7731364784 0.0798376379 0.8529741163  Biso 1.0 V
V12 1.0000000000 0.2268635216 0.9201623621 0.1470258837  Biso 1.0 V
V13 1.0000000000 0.4201623621 0.7268635216 0.1470258837  Biso 1.0 V
V14 1.0000000000 0.5798376379 0.2731364784 0.8529741163  Biso 1.0 V
V15 1.0000000000 0.7268635216 0.5798376379 0.3067011594  Biso 1.0 V
V16 1.0000000000 0.2731364784 0.4201623621 0.6932988406  Biso 1.0 V
