# AFLOW.org Repositories
# As3Yb4   [BCC,BCC,cI28] (STD_PRIM doi:10
data_As3Yb4
_pd_phase_name As3Yb4
_cell_length_a  7.7291161123
_cell_length_b  7.7291161123
_cell_length_c  7.7291161123
_cell_angle_alpha  109.4712206345
_cell_angle_beta  109.4712206345
_cell_angle_gamma  109.4712206345
_symmetry_space_group_name_H-M  'P1'
_symmetry_Int_Tables_Number  1
loop_
_symmetry_equiv_pos_site_id
_symmetry_equiv_pos_as_xyz
  1  x,y,z
loop_
 _atom_site_label
 _atom_site_occupancy
 _atom_site_fract_x
 _atom_site_fract_y
 _atom_site_fract_z
 _atom_site_thermal_displace_type
 _atom_site_B_iso_or_equiv
 _atom_site_type_symbol
As1 1.0000000000 0.6250000000 0.7500000000 0.3750000000  Biso 1.0 As
As2 1.0000000000 0.8750000000 0.2500000000 0.1250000000  Biso 1.0 As
As3 1.0000000000 0.1250000000 0.3750000000 0.7500000000  Biso 1.0 As
As4 1.0000000000 0.3750000000 0.1250000000 0.2500000000  Biso 1.0 As
As5 1.0000000000 0.2500000000 0.8750000000 0.6250000000  Biso 1.0 As
As6 1.0000000000 0.7500000000 0.6250000000 0.8750000000  Biso 1.0 As
Yb7 1.0000000000 0.0000000000 0.0000000000 0.8610690820  Biso 1.0 Yb
Yb8 1.0000000000 0.5000000000 0.3610690820 0.0000000000  Biso 1.0 Yb
Yb9 1.0000000000 0.6389309180 0.1389309180 0.6389309180  Biso 1.0 Yb
Yb10 1.0000000000 0.8610690820 0.5000000000 0.5000000000  Biso 1.0 Yb
Yb11 1.0000000000 0.0000000000 0.0000000000 0.3610690820  Biso 1.0 Yb
Yb12 1.0000000000 0.5000000000 0.8610690820 0.0000000000  Biso 1.0 Yb
Yb13 1.0000000000 0.3610690820 0.5000000000 0.5000000000  Biso 1.0 Yb
Yb14 1.0000000000 0.1389309180 0.6389309180 0.1389309180  Biso 1.0 Yb
