# AFLOW.org Repositories
# As4Ca3In2   [ORC,ORC,oP18] (STD_PRIM doi
data_As4Ca3In2
_pd_phase_name As4Ca3In2
_cell_length_a  4.3673426644
_cell_length_b  6.6805307288
_cell_length_c  16.2464101492
_cell_angle_alpha  90.0000000000
_cell_angle_beta  90.0000000000
_cell_angle_gamma  90.0000000000
_symmetry_space_group_name_H-M  'P1'
_symmetry_Int_Tables_Number  1
loop_
_symmetry_equiv_pos_site_id
_symmetry_equiv_pos_as_xyz
  1  x,y,z
loop_
 _atom_site_label
 _atom_site_occupancy
 _atom_site_fract_x
 _atom_site_fract_y
 _atom_site_fract_z
 _atom_site_thermal_displace_type
 _atom_site_B_iso_or_equiv
 _atom_site_type_symbol
As1 1.0000000000 0.0000000000 0.7405184294 0.4286162315  Biso 1.0 As
As2 1.0000000000 0.0000000000 0.2594815706 0.5713837685  Biso 1.0 As
As3 1.0000000000 0.5000000000 0.2405184294 0.0713837685  Biso 1.0 As
As4 1.0000000000 0.5000000000 0.7594815706 0.9286162315  Biso 1.0 As
As5 1.0000000000 0.0000000000 0.7710082244 0.1728381160  Biso 1.0 As
As6 1.0000000000 0.0000000000 0.2289917756 0.8271618840  Biso 1.0 As
As7 1.0000000000 0.5000000000 0.2710082244 0.3271618840  Biso 1.0 As
As8 1.0000000000 0.5000000000 0.7289917756 0.6728381160  Biso 1.0 As
Ca9 1.0000000000 0.0000000000 0.2761698812 0.1954632015  Biso 1.0 Ca
Ca10 1.0000000000 0.0000000000 0.7238301188 0.8045367985  Biso 1.0 Ca
Ca11 1.0000000000 0.5000000000 0.7761698812 0.3045367985  Biso 1.0 Ca
Ca12 1.0000000000 0.5000000000 0.2238301188 0.6954632015  Biso 1.0 Ca
Ca13 1.0000000000 0.0000000000 0.0000000000 0.0000000000  Biso 1.0 Ca
Ca14 1.0000000000 0.5000000000 0.5000000000 0.5000000000  Biso 1.0 Ca
In15 1.0000000000 0.0000000000 0.8613121028 0.5880876088  Biso 1.0 In
In16 1.0000000000 0.0000000000 0.1386878972 0.4119123912  Biso 1.0 In
In17 1.0000000000 0.5000000000 0.3613121028 0.9119123912  Biso 1.0 In
In18 1.0000000000 0.5000000000 0.6386878972 0.0880876088  Biso 1.0 In
