# AFLOW.org Repositories
# As4Mo5   [BCT,BCT1,tI18] (STD_PRIM doi:1
data_As4Mo5
_pd_phase_name As4Mo5
_cell_length_a  6.9038761185
_cell_length_b  6.9038761185
_cell_length_c  6.9038761185
_cell_angle_alpha  93.0688314929
_cell_angle_beta  93.0688314929
_cell_angle_gamma  153.2436156131
_symmetry_space_group_name_H-M  'P1'
_symmetry_Int_Tables_Number  1
loop_
_symmetry_equiv_pos_site_id
_symmetry_equiv_pos_as_xyz
  1  x,y,z
loop_
 _atom_site_label
 _atom_site_occupancy
 _atom_site_fract_x
 _atom_site_fract_y
 _atom_site_fract_z
 _atom_site_thermal_displace_type
 _atom_site_B_iso_or_equiv
 _atom_site_type_symbol
As1 1.0000000000 0.3261571566 0.3572666784 0.6834238350  Biso 1.0 As
As2 1.0000000000 0.6738428434 0.6427333216 0.3165761650  Biso 1.0 As
As3 1.0000000000 0.3572666784 0.6738428434 0.0311095218  Biso 1.0 As
As4 1.0000000000 0.6427333216 0.3261571566 0.9688904782  Biso 1.0 As
Mo5 1.0000000000 0.0000000000 0.0000000000 0.0000000000  Biso 1.0 Mo
Mo6 1.0000000000 0.0505089352 0.3421202715 0.3926292067  Biso 1.0 Mo
Mo7 1.0000000000 0.9494910648 0.6578797285 0.6073707933  Biso 1.0 Mo
Mo8 1.0000000000 0.3421202715 0.9494910648 0.2916113363  Biso 1.0 Mo
Mo9 1.0000000000 0.6578797285 0.0505089352 0.7083886637  Biso 1.0 Mo
