# AFLOW.org Repositories
# As4Mg1   [TET,TET,tP20] (STD_PRIM doi:10
data_As4Mg1
_pd_phase_name As4Mg1
_cell_length_a  5.4723277903
_cell_length_b  5.4723277903
_cell_length_c  16.0897099858
_cell_angle_alpha  90.0000000000
_cell_angle_beta  90.0000000000
_cell_angle_gamma  90.0000000000
_symmetry_space_group_name_H-M  'P1'
_symmetry_Int_Tables_Number  1
loop_
_symmetry_equiv_pos_site_id
_symmetry_equiv_pos_as_xyz
  1  x,y,z
loop_
 _atom_site_label
 _atom_site_occupancy
 _atom_site_fract_x
 _atom_site_fract_y
 _atom_site_fract_z
 _atom_site_thermal_displace_type
 _atom_site_B_iso_or_equiv
 _atom_site_type_symbol
As1 1.0000000000 0.0992836663 0.9761832269 0.3750238718  Biso 1.0 As
As2 1.0000000000 0.9007163337 0.0238167731 0.8750238718  Biso 1.0 As
As3 1.0000000000 0.5238167731 0.5992836663 0.6250238718  Biso 1.0 As
As4 1.0000000000 0.4761832269 0.4007163337 0.1250238718  Biso 1.0 As
As5 1.0000000000 0.4007163337 0.4761832269 0.8749761282  Biso 1.0 As
As6 1.0000000000 0.5992836663 0.5238167731 0.3749761282  Biso 1.0 As
As7 1.0000000000 0.9761832269 0.0992836663 0.6249761282  Biso 1.0 As
As8 1.0000000000 0.0238167731 0.9007163337 0.1249761282  Biso 1.0 As
As9 1.0000000000 0.6754534805 0.0669230437 0.2028248235  Biso 1.0 As
As10 1.0000000000 0.3245465195 0.9330769563 0.7028248235  Biso 1.0 As
As11 1.0000000000 0.4330769563 0.1754534805 0.4528248235  Biso 1.0 As
As12 1.0000000000 0.5669230437 0.8245465195 0.9528248235  Biso 1.0 As
As13 1.0000000000 0.8245465195 0.5669230437 0.0471751765  Biso 1.0 As
As14 1.0000000000 0.1754534805 0.4330769563 0.5471751765  Biso 1.0 As
As15 1.0000000000 0.0669230437 0.6754534805 0.7971751765  Biso 1.0 As
As16 1.0000000000 0.9330769563 0.3245465195 0.2971751765  Biso 1.0 As
Mg17 1.0000000000 0.1970917349 0.1970917349 0.0000000000  Biso 1.0 Mg
Mg18 1.0000000000 0.8029082651 0.8029082651 0.5000000000  Biso 1.0 Mg
Mg19 1.0000000000 0.3029082651 0.6970917349 0.2500000000  Biso 1.0 Mg
Mg20 1.0000000000 0.6970917349 0.3029082651 0.7500000000  Biso 1.0 Mg
