# AFLOW.org Repositories
# As4Na8Ti1   [FCC,FCC,cF104] (STD_PRIM do
data_As4Na8Ti1
_pd_phase_name As4Na8Ti1
_cell_length_a  9.7690744223
_cell_length_b  9.7690744223
_cell_length_c  9.7690744223
_cell_angle_alpha  60.0000000000
_cell_angle_beta  60.0000000000
_cell_angle_gamma  60.0000000000
_symmetry_space_group_name_H-M  'P1'
_symmetry_Int_Tables_Number  1
loop_
_symmetry_equiv_pos_site_id
_symmetry_equiv_pos_as_xyz
  1  x,y,z
loop_
 _atom_site_label
 _atom_site_occupancy
 _atom_site_fract_x
 _atom_site_fract_y
 _atom_site_fract_z
 _atom_site_thermal_displace_type
 _atom_site_B_iso_or_equiv
 _atom_site_type_symbol
As1 1.0000000000 0.7690517278 0.7690517278 0.6928448166  Biso 1.0 As
As2 1.0000000000 0.1928448166 0.7690517278 0.2690517278  Biso 1.0 As
As3 1.0000000000 0.7690517278 0.7690517278 0.2690517278  Biso 1.0 As
As4 1.0000000000 0.7690517278 0.1928448166 0.2690517278  Biso 1.0 As
As5 1.0000000000 0.8071551834 0.2309482722 0.7309482722  Biso 1.0 As
As6 1.0000000000 0.2309482722 0.2309482722 0.3071551834  Biso 1.0 As
As7 1.0000000000 0.2309482722 0.2309482722 0.7309482722  Biso 1.0 As
As8 1.0000000000 0.2309482722 0.8071551834 0.7309482722  Biso 1.0 As
Na9 1.0000000000 0.1548374124 0.5951625876 0.6548374124  Biso 1.0 Na
Na10 1.0000000000 0.5951625876 0.1548374124 0.0951625876  Biso 1.0 Na
Na11 1.0000000000 0.5951625876 0.1548374124 0.6548374124  Biso 1.0 Na
Na12 1.0000000000 0.1548374124 0.5951625876 0.0951625876  Biso 1.0 Na
Na13 1.0000000000 0.5951625876 0.5951625876 0.6548374124  Biso 1.0 Na
Na14 1.0000000000 0.1548374124 0.1548374124 0.0951625876  Biso 1.0 Na
Na15 1.0000000000 0.8451625876 0.4048374124 0.3451625876  Biso 1.0 Na
Na16 1.0000000000 0.4048374124 0.8451625876 0.9048374124  Biso 1.0 Na
Na17 1.0000000000 0.8451625876 0.8451625876 0.9048374124  Biso 1.0 Na
Na18 1.0000000000 0.4048374124 0.4048374124 0.3451625876  Biso 1.0 Na
Na19 1.0000000000 0.8451625876 0.4048374124 0.9048374124  Biso 1.0 Na
Na20 1.0000000000 0.4048374124 0.8451625876 0.3451625876  Biso 1.0 Na
Na21 1.0000000000 0.0000000000 0.0000000000 0.0000000000  Biso 1.0 Na
Na22 1.0000000000 0.5000000000 0.0000000000 0.5000000000  Biso 1.0 Na
Na23 1.0000000000 0.0000000000 0.0000000000 0.5000000000  Biso 1.0 Na
Na24 1.0000000000 0.0000000000 0.5000000000 0.5000000000  Biso 1.0 Na
Ti25 1.0000000000 0.8750000000 0.8750000000 0.3750000000  Biso 1.0 Ti
Ti26 1.0000000000 0.1250000000 0.1250000000 0.6250000000  Biso 1.0 Ti
