# AFLOW.org Repositories
# As4O6   [FCC,FCC,cF80] (STD_PRIM doi:10.
data_As4O6
_pd_phase_name As4O6
_cell_length_a  8.1401552882
_cell_length_b  8.1401552882
_cell_length_c  8.1401552882
_cell_angle_alpha  60.0000000000
_cell_angle_beta  60.0000000000
_cell_angle_gamma  60.0000000000
_symmetry_space_group_name_H-M  'P1'
_symmetry_Int_Tables_Number  1
loop_
_symmetry_equiv_pos_site_id
_symmetry_equiv_pos_as_xyz
  1  x,y,z
loop_
 _atom_site_label
 _atom_site_occupancy
 _atom_site_fract_x
 _atom_site_fract_y
 _atom_site_fract_z
 _atom_site_thermal_displace_type
 _atom_site_B_iso_or_equiv
 _atom_site_type_symbol
As1 1.0000000000 0.7744382117 0.7744382117 0.7744382117  Biso 1.0 As
As2 1.0000000000 0.7744382117 0.1766853650 0.7744382117  Biso 1.0 As
As3 1.0000000000 0.7744382117 0.7744382117 0.1766853650  Biso 1.0 As
As4 1.0000000000 0.1766853650 0.7744382117 0.7744382117  Biso 1.0 As
As5 1.0000000000 0.2255617883 0.8233146350 0.2255617883  Biso 1.0 As
As6 1.0000000000 0.2255617883 0.2255617883 0.2255617883  Biso 1.0 As
As7 1.0000000000 0.2255617883 0.2255617883 0.8233146350  Biso 1.0 As
As8 1.0000000000 0.8233146350 0.2255617883 0.2255617883  Biso 1.0 As
O9 1.0000000000 0.0470610505 0.7029389495 0.7029389495  Biso 1.0 O
O10 1.0000000000 0.7029389495 0.0470610505 0.0470610505  Biso 1.0 O
O11 1.0000000000 0.7029389495 0.7029389495 0.0470610505  Biso 1.0 O
O12 1.0000000000 0.0470610505 0.0470610505 0.7029389495  Biso 1.0 O
O13 1.0000000000 0.7029389495 0.0470610505 0.7029389495  Biso 1.0 O
O14 1.0000000000 0.0470610505 0.7029389495 0.0470610505  Biso 1.0 O
O15 1.0000000000 0.9529389495 0.9529389495 0.2970610505  Biso 1.0 O
O16 1.0000000000 0.2970610505 0.2970610505 0.9529389495  Biso 1.0 O
O17 1.0000000000 0.2970610505 0.9529389495 0.9529389495  Biso 1.0 O
O18 1.0000000000 0.9529389495 0.2970610505 0.2970610505  Biso 1.0 O
O19 1.0000000000 0.2970610505 0.9529389495 0.2970610505  Biso 1.0 O
O20 1.0000000000 0.9529389495 0.2970610505 0.9529389495  Biso 1.0 O
