# AFLOW.org Repositories
# As4Th3   [BCC,BCC,cI28] (STD_PRIM doi:10
data_As4Th3
_pd_phase_name As4Th3
_cell_length_a  7.8452007402
_cell_length_b  7.8452007402
_cell_length_c  7.8452007402
_cell_angle_alpha  109.4712206345
_cell_angle_beta  109.4712206345
_cell_angle_gamma  109.4712206345
_symmetry_space_group_name_H-M  'P1'
_symmetry_Int_Tables_Number  1
loop_
_symmetry_equiv_pos_site_id
_symmetry_equiv_pos_as_xyz
  1  x,y,z
loop_
 _atom_site_label
 _atom_site_occupancy
 _atom_site_fract_x
 _atom_site_fract_y
 _atom_site_fract_z
 _atom_site_thermal_displace_type
 _atom_site_B_iso_or_equiv
 _atom_site_type_symbol
As1 1.0000000000 0.0000000000 0.0000000000 0.8401919941  Biso 1.0 As
As2 1.0000000000 0.6598080059 0.1598080059 0.6598080059  Biso 1.0 As
As3 1.0000000000 0.8401919941 0.5000000000 0.5000000000  Biso 1.0 As
As4 1.0000000000 0.5000000000 0.3401919941 0.0000000000  Biso 1.0 As
As5 1.0000000000 0.0000000000 0.0000000000 0.3401919941  Biso 1.0 As
As6 1.0000000000 0.1598080059 0.6598080059 0.1598080059  Biso 1.0 As
As7 1.0000000000 0.5000000000 0.8401919941 0.0000000000  Biso 1.0 As
As8 1.0000000000 0.3401919941 0.5000000000 0.5000000000  Biso 1.0 As
Th9 1.0000000000 0.2500000000 0.8750000000 0.6250000000  Biso 1.0 Th
Th10 1.0000000000 0.7500000000 0.6250000000 0.8750000000  Biso 1.0 Th
Th11 1.0000000000 0.6250000000 0.7500000000 0.3750000000  Biso 1.0 Th
Th12 1.0000000000 0.8750000000 0.2500000000 0.1250000000  Biso 1.0 Th
Th13 1.0000000000 0.1250000000 0.3750000000 0.7500000000  Biso 1.0 Th
Th14 1.0000000000 0.3750000000 0.1250000000 0.2500000000  Biso 1.0 Th
