# AFLOW.org Repositories
# As7Mg6Ni16   [FCC,FCC,cF116] (STD_PRIM d
data_As7Mg6Ni16
_pd_phase_name As7Mg6Ni16
_cell_length_a  8.1015192985
_cell_length_b  8.1015192985
_cell_length_c  8.1015192985
_cell_angle_alpha  60.0000000000
_cell_angle_beta  60.0000000000
_cell_angle_gamma  60.0000000000
_symmetry_space_group_name_H-M  'P1'
_symmetry_Int_Tables_Number  1
loop_
_symmetry_equiv_pos_site_id
_symmetry_equiv_pos_as_xyz
  1  x,y,z
loop_
 _atom_site_label
 _atom_site_occupancy
 _atom_site_fract_x
 _atom_site_fract_y
 _atom_site_fract_z
 _atom_site_thermal_displace_type
 _atom_site_B_iso_or_equiv
 _atom_site_type_symbol
As1 1.0000000000 0.5000000000 0.5000000000 0.5000000000  Biso 1.0 As
As2 1.0000000000 0.5000000000 0.0000000000 0.0000000000  Biso 1.0 As
As3 1.0000000000 0.0000000000 0.5000000000 0.5000000000  Biso 1.0 As
As4 1.0000000000 0.0000000000 0.5000000000 0.0000000000  Biso 1.0 As
As5 1.0000000000 0.5000000000 0.0000000000 0.5000000000  Biso 1.0 As
As6 1.0000000000 0.0000000000 0.0000000000 0.5000000000  Biso 1.0 As
As7 1.0000000000 0.5000000000 0.5000000000 0.0000000000  Biso 1.0 As
Mg8 1.0000000000 0.7977487390 0.2022512610 0.2022512610  Biso 1.0 Mg
Mg9 1.0000000000 0.2022512610 0.7977487390 0.7977487390  Biso 1.0 Mg
Mg10 1.0000000000 0.2022512610 0.7977487390 0.2022512610  Biso 1.0 Mg
Mg11 1.0000000000 0.7977487390 0.2022512610 0.7977487390  Biso 1.0 Mg
Mg12 1.0000000000 0.2022512610 0.2022512610 0.7977487390  Biso 1.0 Mg
Mg13 1.0000000000 0.7977487390 0.7977487390 0.2022512610  Biso 1.0 Mg
Ni14 1.0000000000 0.1664521997 0.1664521997 0.1664521997  Biso 1.0 Ni
Ni15 1.0000000000 0.1664521997 0.1664521997 0.5006434008  Biso 1.0 Ni
Ni16 1.0000000000 0.1664521997 0.5006434008 0.1664521997  Biso 1.0 Ni
Ni17 1.0000000000 0.5006434008 0.1664521997 0.1664521997  Biso 1.0 Ni
Ni18 1.0000000000 0.8335478003 0.8335478003 0.4993565992  Biso 1.0 Ni
Ni19 1.0000000000 0.8335478003 0.8335478003 0.8335478003  Biso 1.0 Ni
Ni20 1.0000000000 0.8335478003 0.4993565992 0.8335478003  Biso 1.0 Ni
Ni21 1.0000000000 0.4993565992 0.8335478003 0.8335478003  Biso 1.0 Ni
Ni22 1.0000000000 0.3818463694 0.3818463694 0.3818463694  Biso 1.0 Ni
Ni23 1.0000000000 0.3818463694 0.3818463694 0.8544608917  Biso 1.0 Ni
Ni24 1.0000000000 0.3818463694 0.8544608917 0.3818463694  Biso 1.0 Ni
Ni25 1.0000000000 0.8544608917 0.3818463694 0.3818463694  Biso 1.0 Ni
Ni26 1.0000000000 0.6181536306 0.6181536306 0.1455391083  Biso 1.0 Ni
Ni27 1.0000000000 0.6181536306 0.6181536306 0.6181536306  Biso 1.0 Ni
Ni28 1.0000000000 0.6181536306 0.1455391083 0.6181536306  Biso 1.0 Ni
Ni29 1.0000000000 0.1455391083 0.6181536306 0.6181536306  Biso 1.0 Ni
