# AFLOW.org Repositories
# As7Re3   [BCC,BCC,cI40] (STD_PRIM doi:10
data_As7Re3
_pd_phase_name As7Re3
_cell_length_a  7.6753543356
_cell_length_b  7.6753543356
_cell_length_c  7.6753543356
_cell_angle_alpha  109.4712206345
_cell_angle_beta  109.4712206345
_cell_angle_gamma  109.4712206345
_symmetry_space_group_name_H-M  'P1'
_symmetry_Int_Tables_Number  1
loop_
_symmetry_equiv_pos_site_id
_symmetry_equiv_pos_as_xyz
  1  x,y,z
loop_
 _atom_site_label
 _atom_site_occupancy
 _atom_site_fract_x
 _atom_site_fract_y
 _atom_site_fract_z
 _atom_site_thermal_displace_type
 _atom_site_B_iso_or_equiv
 _atom_site_type_symbol
As1 1.0000000000 0.7500000000 0.2500000000 0.5000000000  Biso 1.0 As
As2 1.0000000000 0.2500000000 0.7500000000 0.5000000000  Biso 1.0 As
As3 1.0000000000 0.2500000000 0.5000000000 0.7500000000  Biso 1.0 As
As4 1.0000000000 0.7500000000 0.5000000000 0.2500000000  Biso 1.0 As
As5 1.0000000000 0.5000000000 0.7500000000 0.2500000000  Biso 1.0 As
As6 1.0000000000 0.5000000000 0.2500000000 0.7500000000  Biso 1.0 As
As7 1.0000000000 0.6676845553 0.6676845553 0.6676845553  Biso 1.0 As
As8 1.0000000000 0.3323154447 0.0000000000 0.0000000000  Biso 1.0 As
As9 1.0000000000 0.0000000000 0.3323154447 0.0000000000  Biso 1.0 As
As10 1.0000000000 0.0000000000 0.0000000000 0.3323154447  Biso 1.0 As
As11 1.0000000000 0.6676845553 0.0000000000 0.0000000000  Biso 1.0 As
As12 1.0000000000 0.3323154447 0.3323154447 0.3323154447  Biso 1.0 As
As13 1.0000000000 0.0000000000 0.6676845553 0.0000000000  Biso 1.0 As
As14 1.0000000000 0.0000000000 0.0000000000 0.6676845553  Biso 1.0 As
Re15 1.0000000000 0.6586867599 0.6586867599 0.0000000000  Biso 1.0 Re
Re16 1.0000000000 0.3413132401 0.3413132401 0.0000000000  Biso 1.0 Re
Re17 1.0000000000 0.6586867599 0.0000000000 0.6586867599  Biso 1.0 Re
Re18 1.0000000000 0.3413132401 0.0000000000 0.3413132401  Biso 1.0 Re
Re19 1.0000000000 0.0000000000 0.6586867599 0.6586867599  Biso 1.0 Re
Re20 1.0000000000 0.0000000000 0.3413132401 0.3413132401  Biso 1.0 Re
