# AFLOW.org Repositories
# Au1Ca1In2   [ORCC,ORCC,oS16] (STD_PRIM d
data_Au1Ca1In2
_pd_phase_name Au1Ca1In2
_cell_length_a  5.9255486858
_cell_length_b  5.9255486858
_cell_length_c  7.7327136879
_cell_angle_alpha  90.0000000000
_cell_angle_beta  90.0000000000
_cell_angle_gamma  134.0059403838
_symmetry_space_group_name_H-M  'P1'
_symmetry_Int_Tables_Number  1
loop_
_symmetry_equiv_pos_site_id
_symmetry_equiv_pos_as_xyz
  1  x,y,z
loop_
 _atom_site_label
 _atom_site_occupancy
 _atom_site_fract_x
 _atom_site_fract_y
 _atom_site_fract_z
 _atom_site_thermal_displace_type
 _atom_site_B_iso_or_equiv
 _atom_site_type_symbol
Au1 1.0000000000 0.2117415126 0.7882584874 0.7500000000  Biso 1.0 Au
Au2 1.0000000000 0.7882584874 0.2117415126 0.2500000000  Biso 1.0 Au
Ca3 1.0000000000 0.9256027415 0.0743972585 0.7500000000  Biso 1.0 Ca
Ca4 1.0000000000 0.0743972585 0.9256027415 0.2500000000  Biso 1.0 Ca
In5 1.0000000000 0.6355236805 0.3644763195 0.9490405504  Biso 1.0 In
In6 1.0000000000 0.3644763195 0.6355236805 0.4490405504  Biso 1.0 In
In7 1.0000000000 0.6355236805 0.3644763195 0.5509594496  Biso 1.0 In
In8 1.0000000000 0.3644763195 0.6355236805 0.0509594496  Biso 1.0 In
