# AFLOW.org Repositories
# Au1Dy2   [ORC,ORC,oP12] (STD_PRIM doi:10
data_Au1Dy2
_pd_phase_name Au1Dy2
_cell_length_a  4.9828599448
_cell_length_b  7.0646123831
_cell_length_c  8.9578175725
_cell_angle_alpha  90.0000000000
_cell_angle_beta  90.0000000000
_cell_angle_gamma  90.0000000000
_symmetry_space_group_name_H-M  'P1'
_symmetry_Int_Tables_Number  1
loop_
_symmetry_equiv_pos_site_id
_symmetry_equiv_pos_as_xyz
  1  x,y,z
loop_
 _atom_site_label
 _atom_site_occupancy
 _atom_site_fract_x
 _atom_site_fract_y
 _atom_site_fract_z
 _atom_site_thermal_displace_type
 _atom_site_B_iso_or_equiv
 _atom_site_type_symbol
Au1 1.0000000000 0.2500000000 0.2607883896 0.9002151205  Biso 1.0 Au
Au2 1.0000000000 0.7500000000 0.2392116104 0.4002151205  Biso 1.0 Au
Au3 1.0000000000 0.7500000000 0.7392116104 0.0997848795  Biso 1.0 Au
Au4 1.0000000000 0.2500000000 0.7607883896 0.5997848795  Biso 1.0 Au
Dy5 1.0000000000 0.2500000000 0.8524279363 0.9181134227  Biso 1.0 Dy
Dy6 1.0000000000 0.7500000000 0.6475720637 0.4181134227  Biso 1.0 Dy
Dy7 1.0000000000 0.7500000000 0.1475720637 0.0818865773  Biso 1.0 Dy
Dy8 1.0000000000 0.2500000000 0.3524279363 0.5818865773  Biso 1.0 Dy
Dy9 1.0000000000 0.2500000000 0.4864552785 0.1767238761  Biso 1.0 Dy
Dy10 1.0000000000 0.7500000000 0.0135447215 0.6767238761  Biso 1.0 Dy
Dy11 1.0000000000 0.7500000000 0.5135447215 0.8232761239  Biso 1.0 Dy
Dy12 1.0000000000 0.2500000000 0.9864552785 0.3232761239  Biso 1.0 Dy
