# AFLOW.org Repositories
# Au1Ga1Zr1   [HEX,HEX,hP6] (STD_PRIM doi:
data_Au1Ga1Zr1
_pd_phase_name Au1Ga1Zr1
_cell_length_a  4.4770629084
_cell_length_b  4.4770629084
_cell_length_c  6.4063762785
_cell_angle_alpha  90.0000000000
_cell_angle_beta  90.0000000000
_cell_angle_gamma  120.0000000000
_symmetry_space_group_name_H-M  'P1'
_symmetry_Int_Tables_Number  1
loop_
_symmetry_equiv_pos_site_id
_symmetry_equiv_pos_as_xyz
  1  x,y,z
loop_
 _atom_site_label
 _atom_site_occupancy
 _atom_site_fract_x
 _atom_site_fract_y
 _atom_site_fract_z
 _atom_site_thermal_displace_type
 _atom_site_B_iso_or_equiv
 _atom_site_type_symbol
Au1 1.0000000000 0.6666891060 0.3333782119 0.7409030422  Biso 1.0 Au
Au2 1.0000000000 0.6666891060 0.3333782119 0.2590969578  Biso 1.0 Au
Ga3 1.0000000000 0.3333184546 0.6666369093 0.7643294491  Biso 1.0 Ga
Ga4 1.0000000000 0.3333184546 0.6666369093 0.2356705509  Biso 1.0 Ga
Zr5 1.0000000000 0.0000000000 0.0000000000 0.0000000000  Biso 1.0 Zr
Zr6 1.0000000000 0.0000000000 0.0000000000 0.5000000000  Biso 1.0 Zr
