# AFLOW.org Repositories
# Au1Gd1   [ORCC,ORCC,oS8] (STD_PRIM doi:1
data_Au1Gd1
_pd_phase_name Au1Gd1
_cell_length_a  5.8707241026
_cell_length_b  5.8707241026
_cell_length_c  4.7357830468
_cell_angle_alpha  90.0000000000
_cell_angle_beta  90.0000000000
_cell_angle_gamma  141.8949953506
_symmetry_space_group_name_H-M  'P1'
_symmetry_Int_Tables_Number  1
loop_
_symmetry_equiv_pos_site_id
_symmetry_equiv_pos_as_xyz
  1  x,y,z
loop_
 _atom_site_label
 _atom_site_occupancy
 _atom_site_fract_x
 _atom_site_fract_y
 _atom_site_fract_z
 _atom_site_thermal_displace_type
 _atom_site_B_iso_or_equiv
 _atom_site_type_symbol
Au1 1.0000000000 0.5852924914 0.4147075086 0.7500000000  Biso 1.0 Au
Au2 1.0000000000 0.4147075086 0.5852924914 0.2500000000  Biso 1.0 Au
Gd3 1.0000000000 0.8603677600 0.1396322400 0.7500000000  Biso 1.0 Gd
Gd4 1.0000000000 0.1396322400 0.8603677600 0.2500000000  Biso 1.0 Gd
