# AFLOW.org Repositories
# Au1Ho1Sn1   [HEX,HEX,hP6] (STD_PRIM doi:
data_Au1Ho1Sn1
_pd_phase_name Au1Ho1Sn1
_cell_length_a  4.7188385087
_cell_length_b  4.7188385087
_cell_length_c  7.4443048416
_cell_angle_alpha  90.0000000000
_cell_angle_beta  90.0000000000
_cell_angle_gamma  120.0000000000
_symmetry_space_group_name_H-M  'P1'
_symmetry_Int_Tables_Number  1
loop_
_symmetry_equiv_pos_site_id
_symmetry_equiv_pos_as_xyz
  1  x,y,z
loop_
 _atom_site_label
 _atom_site_occupancy
 _atom_site_fract_x
 _atom_site_fract_y
 _atom_site_fract_z
 _atom_site_thermal_displace_type
 _atom_site_B_iso_or_equiv
 _atom_site_type_symbol
Au1 1.0000000000 0.3333173162 0.6666826838 0.0791941574  Biso 1.0 Au
Au2 1.0000000000 0.6666826838 0.3333173162 0.5791941574  Biso 1.0 Au
Ho3 1.0000000000 0.0000000000 0.0000000000 0.7501748745  Biso 1.0 Ho
Ho4 1.0000000000 0.0000000000 0.0000000000 0.2501748745  Biso 1.0 Ho
Sn5 1.0000000000 0.3333201053 0.6666798947 0.4767309680  Biso 1.0 Sn
Sn6 1.0000000000 0.6666798947 0.3333201053 0.9767309680  Biso 1.0 Sn
