# AFLOW.org Repositories
# Au1Ho1Ni4   [FCC,FCC,cF24] (STD_PRIM doi
data_Au1Ho1Ni4
_pd_phase_name Au1Ho1Ni4
_cell_length_a  4.9162538140
_cell_length_b  4.9162538140
_cell_length_c  4.9162538140
_cell_angle_alpha  60.0000000000
_cell_angle_beta  60.0000000000
_cell_angle_gamma  60.0000000000
_symmetry_space_group_name_H-M  'P1'
_symmetry_Int_Tables_Number  1
loop_
_symmetry_equiv_pos_site_id
_symmetry_equiv_pos_as_xyz
  1  x,y,z
loop_
 _atom_site_label
 _atom_site_occupancy
 _atom_site_fract_x
 _atom_site_fract_y
 _atom_site_fract_z
 _atom_site_thermal_displace_type
 _atom_site_B_iso_or_equiv
 _atom_site_type_symbol
Au1 1.0000000000 0.7500000000 0.7500000000 0.7500000000  Biso 1.0 Au
Ho2 1.0000000000 0.0000000000 0.0000000000 0.0000000000  Biso 1.0 Ho
Ni3 1.0000000000 0.8722194089 0.3759268637 0.3759268637  Biso 1.0 Ni
Ni4 1.0000000000 0.3759268637 0.3759268637 0.8722194089  Biso 1.0 Ni
Ni5 1.0000000000 0.3759268637 0.8722194089 0.3759268637  Biso 1.0 Ni
Ni6 1.0000000000 0.3759268637 0.3759268637 0.3759268637  Biso 1.0 Ni
