# AFLOW.org Repositories
# Au1In1La1   [HEX,HEX,hP9] (STD_PRIM doi:
data_Au1In1La1
_pd_phase_name Au1In1La1
_cell_length_a  7.8832508569
_cell_length_b  7.8832508569
_cell_length_c  4.3508737662
_cell_angle_alpha  90.0000000000
_cell_angle_beta  90.0000000000
_cell_angle_gamma  120.0000000000
_symmetry_space_group_name_H-M  'P1'
_symmetry_Int_Tables_Number  1
loop_
_symmetry_equiv_pos_site_id
_symmetry_equiv_pos_as_xyz
  1  x,y,z
loop_
 _atom_site_label
 _atom_site_occupancy
 _atom_site_fract_x
 _atom_site_fract_y
 _atom_site_fract_z
 _atom_site_thermal_displace_type
 _atom_site_B_iso_or_equiv
 _atom_site_type_symbol
Au1 1.0000000000 0.0000000000 0.0000000000 0.5000000000  Biso 1.0 Au
Au2 1.0000000000 0.3333513316 0.6666766484 0.0000000000  Biso 1.0 Au
Au3 1.0000000000 0.6666486684 0.3333253168 0.0000000000  Biso 1.0 Au
In4 1.0000000000 0.7551393295 0.7551393295 0.0000000000  Biso 1.0 In
In5 1.0000000000 0.2448716214 0.0000000000 0.0000000000  Biso 1.0 In
In6 1.0000000000 0.0000000000 0.2448774154 0.0000000000  Biso 1.0 In
La7 1.0000000000 0.4133933820 0.4133933820 0.5000000000  Biso 1.0 La
La8 1.0000000000 0.5866005423 0.0000000000 0.5000000000  Biso 1.0 La
La9 1.0000000000 0.0000000000 0.5865991814 0.5000000000  Biso 1.0 La
