# AFLOW.org Repositories
# Au1K1Se1   [ORCC,ORCC,oS12] (STD_PRIM do
data_Au1K1Se1
_pd_phase_name Au1K1Se1
_cell_length_a  5.2652877264
_cell_length_b  5.2652877264
_cell_length_c  6.9408433772
_cell_angle_alpha  90.0000000000
_cell_angle_beta  90.0000000000
_cell_angle_gamma  102.5264078644
_symmetry_space_group_name_H-M  'P1'
_symmetry_Int_Tables_Number  1
loop_
_symmetry_equiv_pos_site_id
_symmetry_equiv_pos_as_xyz
  1  x,y,z
loop_
 _atom_site_label
 _atom_site_occupancy
 _atom_site_fract_x
 _atom_site_fract_y
 _atom_site_fract_z
 _atom_site_thermal_displace_type
 _atom_site_B_iso_or_equiv
 _atom_site_type_symbol
Au1 1.0000000000 0.0000000000 0.0000000000 0.0000000000  Biso 1.0 Au
Au2 1.0000000000 0.0000000000 0.0000000000 0.5000000000  Biso 1.0 Au
K3 1.0000000000 0.6370552276 0.3629447724 0.7500000000  Biso 1.0 K
K4 1.0000000000 0.3629447724 0.6370552276 0.2500000000  Biso 1.0 K
Se5 1.0000000000 0.2127361242 0.7872638758 0.7500000000  Biso 1.0 Se
Se6 1.0000000000 0.7872638758 0.2127361242 0.2500000000  Biso 1.0 Se
