# AFLOW.org Repositories
# Au1La1O3   [ORC,ORC,oP20] (STD_PRIM doi:
data_Au1La1O3
_pd_phase_name Au1La1O3
_cell_length_a  4.1147164546
_cell_length_b  5.7715283029
_cell_length_c  13.2982733317
_cell_angle_alpha  90.0000000000
_cell_angle_beta  90.0000000000
_cell_angle_gamma  90.0000000000
_symmetry_space_group_name_H-M  'P1'
_symmetry_Int_Tables_Number  1
loop_
_symmetry_equiv_pos_site_id
_symmetry_equiv_pos_as_xyz
  1  x,y,z
loop_
 _atom_site_label
 _atom_site_occupancy
 _atom_site_fract_x
 _atom_site_fract_y
 _atom_site_fract_z
 _atom_site_thermal_displace_type
 _atom_site_B_iso_or_equiv
 _atom_site_type_symbol
Au1 1.0000000000 0.9250086076 0.2500000000 0.3291442153  Biso 1.0 Au
Au2 1.0000000000 0.0749913924 0.7500000000 0.6708557847  Biso 1.0 Au
Au3 1.0000000000 0.0749913924 0.2500000000 0.8291442153  Biso 1.0 Au
Au4 1.0000000000 0.9250086076 0.7500000000 0.1708557847  Biso 1.0 Au
La5 1.0000000000 0.7353805398 0.2500000000 0.5817149793  Biso 1.0 La
La6 1.0000000000 0.2646194602 0.7500000000 0.4182850207  Biso 1.0 La
La7 1.0000000000 0.2646194602 0.2500000000 0.0817149793  Biso 1.0 La
La8 1.0000000000 0.7353805398 0.7500000000 0.9182850207  Biso 1.0 La
O9 1.0000000000 0.7460611617 0.0065416538 0.4209385477  Biso 1.0 O
O10 1.0000000000 0.2539388383 0.5065416538 0.5790614523  Biso 1.0 O
O11 1.0000000000 0.2539388383 0.4934583462 0.9209385477  Biso 1.0 O
O12 1.0000000000 0.7460611617 0.9934583462 0.0790614523  Biso 1.0 O
O13 1.0000000000 0.2539388383 0.9934583462 0.5790614523  Biso 1.0 O
O14 1.0000000000 0.7460611617 0.4934583462 0.4209385477  Biso 1.0 O
O15 1.0000000000 0.7460611617 0.5065416538 0.0790614523  Biso 1.0 O
O16 1.0000000000 0.2539388383 0.0065416538 0.9209385477  Biso 1.0 O
O17 1.0000000000 0.1669377005 0.0000000000 0.2500000000  Biso 1.0 O
O18 1.0000000000 0.8330622995 0.5000000000 0.7500000000  Biso 1.0 O
O19 1.0000000000 0.8330622995 0.0000000000 0.7500000000  Biso 1.0 O
O20 1.0000000000 0.1669377005 0.5000000000 0.2500000000  Biso 1.0 O
