# AFLOW.org Repositories
# Au1Mn2   [BCT,BCT2,tI6] (STD_PRIM doi:10
data_Au1Mn2
_pd_phase_name Au1Mn2
_cell_length_a  5.2365426523
_cell_length_b  5.2365426523
_cell_length_c  5.2365426523
_cell_angle_alpha  141.6577636764
_cell_angle_beta  141.6577636764
_cell_angle_gamma  55.3446572401
_symmetry_space_group_name_H-M  'P1'
_symmetry_Int_Tables_Number  1
loop_
_symmetry_equiv_pos_site_id
_symmetry_equiv_pos_as_xyz
  1  x,y,z
loop_
 _atom_site_label
 _atom_site_occupancy
 _atom_site_fract_x
 _atom_site_fract_y
 _atom_site_fract_z
 _atom_site_thermal_displace_type
 _atom_site_B_iso_or_equiv
 _atom_site_type_symbol
Au1 1.0000000000 0.0000000000 0.0000000000 0.0000000000  Biso 1.0 Au
Mn2 1.0000000000 0.3410318197 0.3410318197 0.0000000000  Biso 1.0 Mn
Mn3 1.0000000000 0.6589681803 0.6589681803 0.0000000000  Biso 1.0 Mn
