# AFLOW.org Repositories
# Au1O2Rb1   [ORCC,ORCC,oS16] (STD_PRIM do
data_Au1O2Rb1
_pd_phase_name Au1O2Rb1
_cell_length_a  6.6500763028
_cell_length_b  6.6500763028
_cell_length_c  6.0743697772
_cell_angle_alpha  90.0000000000
_cell_angle_beta  90.0000000000
_cell_angle_gamma  136.8011680124
_symmetry_space_group_name_H-M  'P1'
_symmetry_Int_Tables_Number  1
loop_
_symmetry_equiv_pos_site_id
_symmetry_equiv_pos_as_xyz
  1  x,y,z
loop_
 _atom_site_label
 _atom_site_occupancy
 _atom_site_fract_x
 _atom_site_fract_y
 _atom_site_fract_z
 _atom_site_thermal_displace_type
 _atom_site_B_iso_or_equiv
 _atom_site_type_symbol
Au1 1.0000000000 0.9975957438 0.0024042562 0.2500000000  Biso 1.0 Au
Au2 1.0000000000 0.0024042562 0.9975957438 0.7500000000  Biso 1.0 Au
O3 1.0000000000 0.8907121656 0.1092878344 0.9953387117  Biso 1.0 O
O4 1.0000000000 0.1092878344 0.8907121656 0.4953387117  Biso 1.0 O
O5 1.0000000000 0.8907121656 0.1092878344 0.5046612883  Biso 1.0 O
O6 1.0000000000 0.1092878344 0.8907121656 0.0046612883  Biso 1.0 O
Rb7 1.0000000000 0.6955529108 0.3044470892 0.2500000000  Biso 1.0 Rb
Rb8 1.0000000000 0.3044470892 0.6955529108 0.7500000000  Biso 1.0 Rb
