# AFLOW.org Repositories
# Au1S1Ta5   [FCC,FCC,cF112] (STD_PRIM doi
data_Au1S1Ta5
_pd_phase_name Au1S1Ta5
_cell_length_a  8.9739954907
_cell_length_b  8.9739954907
_cell_length_c  8.9739954907
_cell_angle_alpha  60.0000000000
_cell_angle_beta  60.0000000000
_cell_angle_gamma  60.0000000000
_symmetry_space_group_name_H-M  'P1'
_symmetry_Int_Tables_Number  1
loop_
_symmetry_equiv_pos_site_id
_symmetry_equiv_pos_as_xyz
  1  x,y,z
loop_
 _atom_site_label
 _atom_site_occupancy
 _atom_site_fract_x
 _atom_site_fract_y
 _atom_site_fract_z
 _atom_site_thermal_displace_type
 _atom_site_B_iso_or_equiv
 _atom_site_type_symbol
Au1 1.0000000000 0.8507179720 0.8507179720 0.8507179720  Biso 1.0 Au
Au2 1.0000000000 0.8507179720 0.8507179720 0.4478460841  Biso 1.0 Au
Au3 1.0000000000 0.4478460841 0.8507179720 0.8507179720  Biso 1.0 Au
Au4 1.0000000000 0.8507179720 0.4478460841 0.8507179720  Biso 1.0 Au
S5 1.0000000000 0.1181480203 0.1181480203 0.1181480203  Biso 1.0 S
S6 1.0000000000 0.1181480203 0.1181480203 0.6455559390  Biso 1.0 S
S7 1.0000000000 0.6455559390 0.1181480203 0.1181480203  Biso 1.0 S
S8 1.0000000000 0.1181480203 0.6455559390 0.1181480203  Biso 1.0 S
Ta9 1.0000000000 0.6328982767 0.6328982767 0.6328982767  Biso 1.0 Ta
Ta10 1.0000000000 0.6328982767 0.6328982767 0.1013051700  Biso 1.0 Ta
Ta11 1.0000000000 0.1013051700 0.6328982767 0.6328982767  Biso 1.0 Ta
Ta12 1.0000000000 0.6328982767 0.1013051700 0.6328982767  Biso 1.0 Ta
Ta13 1.0000000000 0.7779649669 0.2220350331 0.7779649669  Biso 1.0 Ta
Ta14 1.0000000000 0.2220350331 0.7779649669 0.2220350331  Biso 1.0 Ta
Ta15 1.0000000000 0.2220350331 0.7779649669 0.7779649669  Biso 1.0 Ta
Ta16 1.0000000000 0.7779649669 0.2220350331 0.2220350331  Biso 1.0 Ta
Ta17 1.0000000000 0.7779649669 0.7779649669 0.2220350331  Biso 1.0 Ta
Ta18 1.0000000000 0.2220350331 0.2220350331 0.7779649669  Biso 1.0 Ta
Ta19 1.0000000000 0.0550901122 0.4449098878 0.0550901122  Biso 1.0 Ta
Ta20 1.0000000000 0.4449098878 0.0550901122 0.4449098878  Biso 1.0 Ta
Ta21 1.0000000000 0.4449098878 0.0550901122 0.0550901122  Biso 1.0 Ta
Ta22 1.0000000000 0.0550901122 0.4449098878 0.4449098878  Biso 1.0 Ta
Ta23 1.0000000000 0.0550901122 0.0550901122 0.4449098878  Biso 1.0 Ta
Ta24 1.0000000000 0.4449098878 0.4449098878 0.0550901122  Biso 1.0 Ta
Ta25 1.0000000000 0.4179944396 0.4179944396 0.4179944396  Biso 1.0 Ta
Ta26 1.0000000000 0.4179944396 0.4179944396 0.7460166813  Biso 1.0 Ta
Ta27 1.0000000000 0.7460166813 0.4179944396 0.4179944396  Biso 1.0 Ta
Ta28 1.0000000000 0.4179944396 0.7460166813 0.4179944396  Biso 1.0 Ta
