# AFLOW.org Repositories
# Au1Sb1Yb1   [HEX,HEX,hP6] (STD_PRIM doi:
data_Au1Sb1Yb1
_pd_phase_name Au1Sb1Yb1
_cell_length_a  4.7298666576
_cell_length_b  4.7298666576
_cell_length_c  7.9533214075
_cell_angle_alpha  90.0000000000
_cell_angle_beta  90.0000000000
_cell_angle_gamma  120.0000000000
_symmetry_space_group_name_H-M  'P1'
_symmetry_Int_Tables_Number  1
loop_
_symmetry_equiv_pos_site_id
_symmetry_equiv_pos_as_xyz
  1  x,y,z
loop_
 _atom_site_label
 _atom_site_occupancy
 _atom_site_fract_x
 _atom_site_fract_y
 _atom_site_fract_z
 _atom_site_thermal_displace_type
 _atom_site_B_iso_or_equiv
 _atom_site_type_symbol
Au1 1.0000000000 0.6666716173 0.3333432347 0.0462442321  Biso 1.0 Au
Au2 1.0000000000 0.3333283827 0.6666567653 0.5462442321  Biso 1.0 Au
Sb3 1.0000000000 0.6666656333 0.3333312666 0.4770936234  Biso 1.0 Sb
Sb4 1.0000000000 0.3333343667 0.6666687334 0.9770936234  Biso 1.0 Sb
Yb5 1.0000000000 0.0000000000 0.0000000000 0.2506621445  Biso 1.0 Yb
Yb6 1.0000000000 0.0000000000 0.0000000000 0.7506621445  Biso 1.0 Yb
