# AFLOW.org Repositories
# Au1Si1Y1   [HEX,HEX,hP6] (STD_PRIM doi:1
data_Au1Si1Y1
_pd_phase_name Au1Si1Y1
_cell_length_a  4.3394590741
_cell_length_b  4.3394590741
_cell_length_c  7.5752926673
_cell_angle_alpha  90.0000000000
_cell_angle_beta  90.0000000000
_cell_angle_gamma  120.0000000000
_symmetry_space_group_name_H-M  'P1'
_symmetry_Int_Tables_Number  1
loop_
_symmetry_equiv_pos_site_id
_symmetry_equiv_pos_as_xyz
  1  x,y,z
loop_
 _atom_site_label
 _atom_site_occupancy
 _atom_site_fract_x
 _atom_site_fract_y
 _atom_site_fract_z
 _atom_site_thermal_displace_type
 _atom_site_B_iso_or_equiv
 _atom_site_type_symbol
Au1 1.0000000000 0.3333403698 0.6666596302 0.2345690072  Biso 1.0 Au
Au2 1.0000000000 0.6666596302 0.3333403698 0.7345690072  Biso 1.0 Au
Si3 1.0000000000 0.3333394073 0.6666605927 0.7750320275  Biso 1.0 Si
Si4 1.0000000000 0.6666605927 0.3333394073 0.2750320275  Biso 1.0 Si
Y5 1.0000000000 0.0000000000 0.0000000000 0.0000000000  Biso 1.0 Y
Y6 1.0000000000 0.0000000000 0.0000000000 0.4993989653  Biso 1.0 Y
