# AFLOW.org Repositories
# Au1Sc1Si1   [HEX,HEX,hP6] (STD_PRIM doi:
data_Au1Sc1Si1
_pd_phase_name Au1Sc1Si1
_cell_length_a  4.2773790584
_cell_length_b  4.2773790584
_cell_length_c  6.9299560516
_cell_angle_alpha  90.0000000000
_cell_angle_beta  90.0000000000
_cell_angle_gamma  120.0000000000
_symmetry_space_group_name_H-M  'P1'
_symmetry_Int_Tables_Number  1
loop_
_symmetry_equiv_pos_site_id
_symmetry_equiv_pos_as_xyz
  1  x,y,z
loop_
 _atom_site_label
 _atom_site_occupancy
 _atom_site_fract_x
 _atom_site_fract_y
 _atom_site_fract_z
 _atom_site_thermal_displace_type
 _atom_site_B_iso_or_equiv
 _atom_site_type_symbol
Au1 1.0000000000 0.6666634703 0.3333365297 0.2167904501  Biso 1.0 Au
Au2 1.0000000000 0.6666634703 0.3333365297 0.7832095499  Biso 1.0 Au
Sc3 1.0000000000 0.0000000000 0.0000000000 0.5000000000  Biso 1.0 Sc
Sc4 1.0000000000 0.0000000000 0.0000000000 0.0000000000  Biso 1.0 Sc
Si5 1.0000000000 0.3333384175 0.6666615825 0.2952053966  Biso 1.0 Si
Si6 1.0000000000 0.3333384175 0.6666615825 0.7047946034  Biso 1.0 Si
