# AFLOW.org Repositories
# Au1Sc1Sn1   [HEX,HEX,hP6] (STD_PRIM doi:
data_Au1Sc1Sn1
_pd_phase_name Au1Sc1Sn1
_cell_length_a  4.6397702399
_cell_length_b  4.6397702399
_cell_length_c  7.2632855339
_cell_angle_alpha  90.0000000000
_cell_angle_beta  90.0000000000
_cell_angle_gamma  120.0000000000
_symmetry_space_group_name_H-M  'P1'
_symmetry_Int_Tables_Number  1
loop_
_symmetry_equiv_pos_site_id
_symmetry_equiv_pos_as_xyz
  1  x,y,z
loop_
 _atom_site_label
 _atom_site_occupancy
 _atom_site_fract_x
 _atom_site_fract_y
 _atom_site_fract_z
 _atom_site_thermal_displace_type
 _atom_site_B_iso_or_equiv
 _atom_site_type_symbol
Au1 1.0000000000 0.6666352007 0.3333176004 0.8073268673  Biso 1.0 Au
Au2 1.0000000000 0.3333647993 0.6666823996 0.3073268673  Biso 1.0 Au
Sc3 1.0000000000 0.0000000000 0.0000000000 0.9683379745  Biso 1.0 Sc
Sc4 1.0000000000 0.0000000000 0.0000000000 0.4683379745  Biso 1.0 Sc
Sn5 1.0000000000 0.6666392465 0.3333196232 0.1992351582  Biso 1.0 Sn
Sn6 1.0000000000 0.3333607535 0.6666803768 0.6992351582  Biso 1.0 Sn
