# AFLOW.org Repositories
# Au1Y2   [ORC,ORC,oP12] (STD_PRIM doi:10.
data_Au1Y2
_pd_phase_name Au1Y2
_cell_length_a  4.9968998630
_cell_length_b  7.1430175175
_cell_length_c  8.9578694878
_cell_angle_alpha  90.0000000000
_cell_angle_beta  90.0000000000
_cell_angle_gamma  90.0000000000
_symmetry_space_group_name_H-M  'P1'
_symmetry_Int_Tables_Number  1
loop_
_symmetry_equiv_pos_site_id
_symmetry_equiv_pos_as_xyz
  1  x,y,z
loop_
 _atom_site_label
 _atom_site_occupancy
 _atom_site_fract_x
 _atom_site_fract_y
 _atom_site_fract_z
 _atom_site_thermal_displace_type
 _atom_site_B_iso_or_equiv
 _atom_site_type_symbol
Au1 1.0000000000 0.2500000000 0.2420746358 0.6004599741  Biso 1.0 Au
Au2 1.0000000000 0.7500000000 0.2579253642 0.1004599741  Biso 1.0 Au
Au3 1.0000000000 0.7500000000 0.7579253642 0.3995400259  Biso 1.0 Au
Au4 1.0000000000 0.2500000000 0.7420746358 0.8995400259  Biso 1.0 Au
Y5 1.0000000000 0.2500000000 0.1471698973 0.9187445156  Biso 1.0 Y
Y6 1.0000000000 0.7500000000 0.3528301027 0.4187445156  Biso 1.0 Y
Y7 1.0000000000 0.7500000000 0.8528301027 0.0812554844  Biso 1.0 Y
Y8 1.0000000000 0.2500000000 0.6471698973 0.5812554844  Biso 1.0 Y
Y9 1.0000000000 0.2500000000 0.0152700398 0.3240540899  Biso 1.0 Y
Y10 1.0000000000 0.7500000000 0.4847299602 0.8240540899  Biso 1.0 Y
Y11 1.0000000000 0.7500000000 0.9847299602 0.6759459101  Biso 1.0 Y
Y12 1.0000000000 0.2500000000 0.5152700398 0.1759459101  Biso 1.0 Y
