# AFLOW.org Repositories
# Au1Zn3   [CUB,CUB,cP32] (STD_PRIM doi:10
data_Au1Zn3
_pd_phase_name Au1Zn3
_cell_length_a  7.8645953872
_cell_length_b  7.8645953872
_cell_length_c  7.8645953872
_cell_angle_alpha  90.0000000000
_cell_angle_beta  90.0000000000
_cell_angle_gamma  90.0000000000
_symmetry_space_group_name_H-M  'P1'
_symmetry_Int_Tables_Number  1
loop_
_symmetry_equiv_pos_site_id
_symmetry_equiv_pos_as_xyz
  1  x,y,z
loop_
 _atom_site_label
 _atom_site_occupancy
 _atom_site_fract_x
 _atom_site_fract_y
 _atom_site_fract_z
 _atom_site_thermal_displace_type
 _atom_site_B_iso_or_equiv
 _atom_site_type_symbol
Au1 1.0000000000 0.0000000000 0.0000000000 0.0000000000  Biso 1.0 Au
Au2 1.0000000000 0.5000000000 0.5000000000 0.5000000000  Biso 1.0 Au
Au3 1.0000000000 0.7500000000 0.0000000000 0.5000000000  Biso 1.0 Au
Au4 1.0000000000 0.2500000000 0.0000000000 0.5000000000  Biso 1.0 Au
Au5 1.0000000000 0.5000000000 0.7500000000 0.0000000000  Biso 1.0 Au
Au6 1.0000000000 0.5000000000 0.2500000000 0.0000000000  Biso 1.0 Au
Au7 1.0000000000 0.0000000000 0.5000000000 0.2500000000  Biso 1.0 Au
Au8 1.0000000000 0.0000000000 0.5000000000 0.7500000000  Biso 1.0 Au
Zn9 1.0000000000 0.0000000000 0.8357754980 0.2992799501  Biso 1.0 Zn
Zn10 1.0000000000 0.0000000000 0.1642245020 0.2992799501  Biso 1.0 Zn
Zn11 1.0000000000 0.0000000000 0.8357754980 0.7007200499  Biso 1.0 Zn
Zn12 1.0000000000 0.0000000000 0.1642245020 0.7007200499  Biso 1.0 Zn
Zn13 1.0000000000 0.7007200499 0.0000000000 0.1642245020  Biso 1.0 Zn
Zn14 1.0000000000 0.7007200499 0.0000000000 0.8357754980  Biso 1.0 Zn
Zn15 1.0000000000 0.2992799501 0.0000000000 0.1642245020  Biso 1.0 Zn
Zn16 1.0000000000 0.2992799501 0.0000000000 0.8357754980  Biso 1.0 Zn
Zn17 1.0000000000 0.8357754980 0.7007200499 0.0000000000  Biso 1.0 Zn
Zn18 1.0000000000 0.1642245020 0.7007200499 0.0000000000  Biso 1.0 Zn
Zn19 1.0000000000 0.8357754980 0.2992799501 0.0000000000  Biso 1.0 Zn
Zn20 1.0000000000 0.1642245020 0.2992799501 0.0000000000  Biso 1.0 Zn
Zn21 1.0000000000 0.3357754980 0.5000000000 0.2007200499  Biso 1.0 Zn
Zn22 1.0000000000 0.6642245020 0.5000000000 0.2007200499  Biso 1.0 Zn
Zn23 1.0000000000 0.3357754980 0.5000000000 0.7992799501  Biso 1.0 Zn
Zn24 1.0000000000 0.6642245020 0.5000000000 0.7992799501  Biso 1.0 Zn
Zn25 1.0000000000 0.5000000000 0.2007200499 0.3357754980  Biso 1.0 Zn
Zn26 1.0000000000 0.5000000000 0.2007200499 0.6642245020  Biso 1.0 Zn
Zn27 1.0000000000 0.5000000000 0.7992799501 0.3357754980  Biso 1.0 Zn
Zn28 1.0000000000 0.5000000000 0.7992799501 0.6642245020  Biso 1.0 Zn
Zn29 1.0000000000 0.2007200499 0.3357754980 0.5000000000  Biso 1.0 Zn
Zn30 1.0000000000 0.2007200499 0.6642245020 0.5000000000  Biso 1.0 Zn
Zn31 1.0000000000 0.7992799501 0.3357754980 0.5000000000  Biso 1.0 Zn
Zn32 1.0000000000 0.7992799501 0.6642245020 0.5000000000  Biso 1.0 Zn
