# AFLOW.org Repositories
# Au2Bi1Tb5   [BCT,BCT2,tI32] (STD_PRIM do
data_Au2Bi1Tb5
_pd_phase_name Au2Bi1Tb5
_cell_length_a  8.7516028064
_cell_length_b  8.7516028064
_cell_length_c  8.7516028064
_cell_angle_alpha  124.4455194622
_cell_angle_beta  124.4455194622
_cell_angle_gamma  82.4584755007
_symmetry_space_group_name_H-M  'P1'
_symmetry_Int_Tables_Number  1
loop_
_symmetry_equiv_pos_site_id
_symmetry_equiv_pos_as_xyz
  1  x,y,z
loop_
 _atom_site_label
 _atom_site_occupancy
 _atom_site_fract_x
 _atom_site_fract_y
 _atom_site_fract_z
 _atom_site_thermal_displace_type
 _atom_site_B_iso_or_equiv
 _atom_site_type_symbol
Au1 1.0000000000 0.6384962453 0.1384962453 0.7769924906  Biso 1.0 Au
Au2 1.0000000000 0.3615037547 0.8615037547 0.2230075094  Biso 1.0 Au
Au3 1.0000000000 0.8615037547 0.6384962453 0.5000000000  Biso 1.0 Au
Au4 1.0000000000 0.1384962453 0.3615037547 0.5000000000  Biso 1.0 Au
Bi5 1.0000000000 0.7500000000 0.7500000000 0.0000000000  Biso 1.0 Bi
Bi6 1.0000000000 0.2500000000 0.2500000000 0.0000000000  Biso 1.0 Bi
Tb7 1.0000000000 0.0000000000 0.0000000000 0.0000000000  Biso 1.0 Tb
Tb8 1.0000000000 0.5000000000 0.5000000000 0.0000000000  Biso 1.0 Tb
Tb9 1.0000000000 0.0093385539 0.5093385539 0.8049807164  Biso 1.0 Tb
Tb10 1.0000000000 0.7043578375 0.2043578375 0.1950192836  Biso 1.0 Tb
Tb11 1.0000000000 0.2043578375 0.0093385539 0.5000000000  Biso 1.0 Tb
Tb12 1.0000000000 0.5093385539 0.7043578375 0.5000000000  Biso 1.0 Tb
Tb13 1.0000000000 0.4906614461 0.2956421625 0.5000000000  Biso 1.0 Tb
Tb14 1.0000000000 0.7956421625 0.9906614461 0.5000000000  Biso 1.0 Tb
Tb15 1.0000000000 0.2956421625 0.7956421625 0.8049807164  Biso 1.0 Tb
Tb16 1.0000000000 0.9906614461 0.4906614461 0.1950192836  Biso 1.0 Tb
