# AFLOW.org Repositories
# Au2Er2Sn1   [TET,TET,tP20] (STD_PRIM doi
data_Au2Er2Sn1
_pd_phase_name Au2Er2Sn1
_cell_length_a  7.8750831061
_cell_length_b  7.8750831061
_cell_length_c  7.4536176488
_cell_angle_alpha  90.0000000000
_cell_angle_beta  90.0000000000
_cell_angle_gamma  90.0000000000
_symmetry_space_group_name_H-M  'P1'
_symmetry_Int_Tables_Number  1
loop_
_symmetry_equiv_pos_site_id
_symmetry_equiv_pos_as_xyz
  1  x,y,z
loop_
 _atom_site_label
 _atom_site_occupancy
 _atom_site_fract_x
 _atom_site_fract_y
 _atom_site_fract_z
 _atom_site_thermal_displace_type
 _atom_site_B_iso_or_equiv
 _atom_site_type_symbol
Au1 1.0000000000 0.3726539281 0.3726539281 0.2773542737  Biso 1.0 Au
Au2 1.0000000000 0.6273460719 0.6273460719 0.2773542737  Biso 1.0 Au
Au3 1.0000000000 0.1273460719 0.8726539281 0.7773542737  Biso 1.0 Au
Au4 1.0000000000 0.8726539281 0.1273460719 0.7773542737  Biso 1.0 Au
Au5 1.0000000000 0.1273460719 0.8726539281 0.2226457263  Biso 1.0 Au
Au6 1.0000000000 0.8726539281 0.1273460719 0.2226457263  Biso 1.0 Au
Au7 1.0000000000 0.3726539281 0.3726539281 0.7226457263  Biso 1.0 Au
Au8 1.0000000000 0.6273460719 0.6273460719 0.7226457263  Biso 1.0 Au
Er9 1.0000000000 0.1831783388 0.1831783388 0.0000000000  Biso 1.0 Er
Er10 1.0000000000 0.8168216612 0.8168216612 0.0000000000  Biso 1.0 Er
Er11 1.0000000000 0.3168216612 0.6831783388 0.5000000000  Biso 1.0 Er
Er12 1.0000000000 0.6831783388 0.3168216612 0.5000000000  Biso 1.0 Er
Er13 1.0000000000 0.3427641748 0.6572358252 0.0000000000  Biso 1.0 Er
Er14 1.0000000000 0.6572358252 0.3427641748 0.0000000000  Biso 1.0 Er
Er15 1.0000000000 0.8427641748 0.8427641748 0.5000000000  Biso 1.0 Er
Er16 1.0000000000 0.1572358252 0.1572358252 0.5000000000  Biso 1.0 Er
Sn17 1.0000000000 0.0000000000 0.5000000000 0.2500000000  Biso 1.0 Sn
Sn18 1.0000000000 0.0000000000 0.5000000000 0.7500000000  Biso 1.0 Sn
Sn19 1.0000000000 0.5000000000 0.0000000000 0.2500000000  Biso 1.0 Sn
Sn20 1.0000000000 0.5000000000 0.0000000000 0.7500000000  Biso 1.0 Sn
