# AFLOW.org Repositories
# Au2Ga2Sr1   [TET,TET,tP10] (STD_PRIM doi
data_Au2Ga2Sr1
_pd_phase_name Au2Ga2Sr1
_cell_length_a  4.5409536370
_cell_length_b  4.5409536370
_cell_length_c  10.7025023732
_cell_angle_alpha  90.0000000000
_cell_angle_beta  90.0000000000
_cell_angle_gamma  90.0000000000
_symmetry_space_group_name_H-M  'P1'
_symmetry_Int_Tables_Number  1
loop_
_symmetry_equiv_pos_site_id
_symmetry_equiv_pos_as_xyz
  1  x,y,z
loop_
 _atom_site_label
 _atom_site_occupancy
 _atom_site_fract_x
 _atom_site_fract_y
 _atom_site_fract_z
 _atom_site_thermal_displace_type
 _atom_site_B_iso_or_equiv
 _atom_site_type_symbol
Au1 1.0000000000 0.7500000000 0.2500000000 0.0000000000  Biso 1.0 Au
Au2 1.0000000000 0.2500000000 0.7500000000 0.0000000000  Biso 1.0 Au
Au3 1.0000000000 0.2500000000 0.2500000000 0.6312036719  Biso 1.0 Au
Au4 1.0000000000 0.7500000000 0.7500000000 0.3687963281  Biso 1.0 Au
Ga5 1.0000000000 0.7500000000 0.2500000000 0.5000000000  Biso 1.0 Ga
Ga6 1.0000000000 0.2500000000 0.7500000000 0.5000000000  Biso 1.0 Ga
Ga7 1.0000000000 0.2500000000 0.2500000000 0.8739432846  Biso 1.0 Ga
Ga8 1.0000000000 0.7500000000 0.7500000000 0.1260567154  Biso 1.0 Ga
Sr9 1.0000000000 0.2500000000 0.2500000000 0.2492010063  Biso 1.0 Sr
Sr10 1.0000000000 0.7500000000 0.7500000000 0.7507989937  Biso 1.0 Sr
