# AFLOW.org Repositories
# Au2Ga1   [ORCC,ORCC,oS24] (STD_PRIM doi:
data_Au2Ga1
_pd_phase_name Au2Ga1
_cell_length_a  9.2213924161
_cell_length_b  9.2213924161
_cell_length_c  7.0248451331
_cell_angle_alpha  90.0000000000
_cell_angle_beta  90.0000000000
_cell_angle_gamma  159.2187722647
_symmetry_space_group_name_H-M  'P1'
_symmetry_Int_Tables_Number  1
loop_
_symmetry_equiv_pos_site_id
_symmetry_equiv_pos_as_xyz
  1  x,y,z
loop_
 _atom_site_label
 _atom_site_occupancy
 _atom_site_fract_x
 _atom_site_fract_y
 _atom_site_fract_z
 _atom_site_thermal_displace_type
 _atom_site_B_iso_or_equiv
 _atom_site_type_symbol
Au1 1.0000000000 0.5348402635 0.4651597365 0.9982786523  Biso 1.0 Au
Au2 1.0000000000 0.4651597365 0.5348402635 0.4982786523  Biso 1.0 Au
Au3 1.0000000000 0.6778362077 0.3221637923 0.5970694745  Biso 1.0 Au
Au4 1.0000000000 0.3221637923 0.6778362077 0.0970694745  Biso 1.0 Au
Au5 1.0000000000 0.9128571632 0.0871428368 0.8199821724  Biso 1.0 Au
Au6 1.0000000000 0.0871428368 0.9128571632 0.3199821724  Biso 1.0 Au
Au7 1.0000000000 0.8301494448 0.1698505552 0.4496536396  Biso 1.0 Au
Au8 1.0000000000 0.1698505552 0.8301494448 0.9496536396  Biso 1.0 Au
Ga9 1.0000000000 0.9401539450 0.0598460550 0.1933604511  Biso 1.0 Ga
Ga10 1.0000000000 0.0598460550 0.9401539450 0.6933604511  Biso 1.0 Ga
Ga11 1.0000000000 0.7090874669 0.2909125331 0.2296556100  Biso 1.0 Ga
Ga12 1.0000000000 0.2909125331 0.7090874669 0.7296556100  Biso 1.0 Ga
