# AFLOW.org Repositories
# Au2Nb3   [CUB,CUB,cP20] (STD_PRIM doi:10
data_Au2Nb3
_pd_phase_name Au2Nb3
_cell_length_a  7.1312892352
_cell_length_b  7.1312892352
_cell_length_c  7.1312892352
_cell_angle_alpha  90.0000000000
_cell_angle_beta  90.0000000000
_cell_angle_gamma  90.0000000000
_symmetry_space_group_name_H-M  'P1'
_symmetry_Int_Tables_Number  1
loop_
_symmetry_equiv_pos_site_id
_symmetry_equiv_pos_as_xyz
  1  x,y,z
loop_
 _atom_site_label
 _atom_site_occupancy
 _atom_site_fract_x
 _atom_site_fract_y
 _atom_site_fract_z
 _atom_site_thermal_displace_type
 _atom_site_B_iso_or_equiv
 _atom_site_type_symbol
Au1 1.0000000000 0.9443770104 0.9443770104 0.0556229896  Biso 1.0 Au
Au2 1.0000000000 0.5556229896 0.0556229896 0.5556229896  Biso 1.0 Au
Au3 1.0000000000 0.0556229896 0.4443770104 0.4443770104  Biso 1.0 Au
Au4 1.0000000000 0.4443770104 0.5556229896 0.9443770104  Biso 1.0 Au
Au5 1.0000000000 0.1943770104 0.6943770104 0.1943770104  Biso 1.0 Au
Au6 1.0000000000 0.3056229896 0.3056229896 0.6943770104  Biso 1.0 Au
Au7 1.0000000000 0.6943770104 0.8056229896 0.8056229896  Biso 1.0 Au
Au8 1.0000000000 0.8056229896 0.1943770104 0.3056229896  Biso 1.0 Au
Nb9 1.0000000000 0.8750000000 0.8030693459 0.4469306541  Biso 1.0 Nb
Nb10 1.0000000000 0.6250000000 0.1969306541 0.9469306541  Biso 1.0 Nb
Nb11 1.0000000000 0.1250000000 0.3030693459 0.0530693459  Biso 1.0 Nb
Nb12 1.0000000000 0.3750000000 0.6969306541 0.5530693459  Biso 1.0 Nb
Nb13 1.0000000000 0.5530693459 0.8750000000 0.1969306541  Biso 1.0 Nb
Nb14 1.0000000000 0.0530693459 0.6250000000 0.8030693459  Biso 1.0 Nb
Nb15 1.0000000000 0.9469306541 0.1250000000 0.6969306541  Biso 1.0 Nb
Nb16 1.0000000000 0.4469306541 0.3750000000 0.3030693459  Biso 1.0 Nb
Nb17 1.0000000000 0.8030693459 0.5530693459 0.1250000000  Biso 1.0 Nb
Nb18 1.0000000000 0.1969306541 0.0530693459 0.3750000000  Biso 1.0 Nb
Nb19 1.0000000000 0.3030693459 0.9469306541 0.8750000000  Biso 1.0 Nb
Nb20 1.0000000000 0.6969306541 0.4469306541 0.6250000000  Biso 1.0 Nb
