# AFLOW.org Repositories
# Au3Ca5   [BCT,BCT2,tI32] (STD_PRIM doi:1
data_Au3Ca5
_pd_phase_name Au3Ca5
_cell_length_a  9.2033272461
_cell_length_b  9.2033272461
_cell_length_c  9.2033272461
_cell_angle_alpha  129.1570099053
_cell_angle_beta  129.1570099053
_cell_angle_gamma  74.7580690781
_symmetry_space_group_name_H-M  'P1'
_symmetry_Int_Tables_Number  1
loop_
_symmetry_equiv_pos_site_id
_symmetry_equiv_pos_as_xyz
  1  x,y,z
loop_
 _atom_site_label
 _atom_site_occupancy
 _atom_site_fract_x
 _atom_site_fract_y
 _atom_site_fract_z
 _atom_site_thermal_displace_type
 _atom_site_B_iso_or_equiv
 _atom_site_type_symbol
Au1 1.0000000000 0.2500000000 0.2500000000 0.0000000000  Biso 1.0 Au
Au2 1.0000000000 0.7500000000 0.7500000000 0.0000000000  Biso 1.0 Au
Au3 1.0000000000 0.6314282370 0.8685717630 0.5000000000  Biso 1.0 Au
Au4 1.0000000000 0.3685717630 0.1314282370 0.5000000000  Biso 1.0 Au
Au5 1.0000000000 0.8685717630 0.3685717630 0.2371435261  Biso 1.0 Au
Au6 1.0000000000 0.1314282370 0.6314282370 0.7628564739  Biso 1.0 Au
Ca7 1.0000000000 0.0000000000 0.0000000000 0.0000000000  Biso 1.0 Ca
Ca8 1.0000000000 0.5000000000 0.5000000000 0.0000000000  Biso 1.0 Ca
Ca9 1.0000000000 0.9769136430 0.8119552923 0.5000000000  Biso 1.0 Ca
Ca10 1.0000000000 0.3119552923 0.4769136430 0.5000000000  Biso 1.0 Ca
Ca11 1.0000000000 0.8119552923 0.3119552923 0.8350416493  Biso 1.0 Ca
Ca12 1.0000000000 0.4769136430 0.9769136430 0.1649583507  Biso 1.0 Ca
Ca13 1.0000000000 0.5230863570 0.0230863570 0.8350416493  Biso 1.0 Ca
Ca14 1.0000000000 0.1880447077 0.6880447077 0.1649583507  Biso 1.0 Ca
Ca15 1.0000000000 0.6880447077 0.5230863570 0.5000000000  Biso 1.0 Ca
Ca16 1.0000000000 0.0230863570 0.1880447077 0.5000000000  Biso 1.0 Ca
