# AFLOW.org Repositories
# Au3Ge1Na1   [CUB,CUB,cP40] (STD_PRIM doi
data_Au3Ge1Na1
_pd_phase_name Au3Ge1Na1
_cell_length_a  9.1994304711
_cell_length_b  9.1994304711
_cell_length_c  9.1994304711
_cell_angle_alpha  90.0000000000
_cell_angle_beta  90.0000000000
_cell_angle_gamma  90.0000000000
_symmetry_space_group_name_H-M  'P1'
_symmetry_Int_Tables_Number  1
loop_
_symmetry_equiv_pos_site_id
_symmetry_equiv_pos_as_xyz
  1  x,y,z
loop_
 _atom_site_label
 _atom_site_occupancy
 _atom_site_fract_x
 _atom_site_fract_y
 _atom_site_fract_z
 _atom_site_thermal_displace_type
 _atom_site_B_iso_or_equiv
 _atom_site_type_symbol
Au1 1.0000000000 0.7671453713 0.8602807165 0.4077826247  Biso 1.0 Au
Au2 1.0000000000 0.7328546287 0.1397192835 0.9077826247  Biso 1.0 Au
Au3 1.0000000000 0.2328546287 0.3602807165 0.0922173753  Biso 1.0 Au
Au4 1.0000000000 0.2671453713 0.6397192835 0.5922173753  Biso 1.0 Au
Au5 1.0000000000 0.5922173753 0.7671453713 0.1397192835  Biso 1.0 Au
Au6 1.0000000000 0.0922173753 0.7328546287 0.8602807165  Biso 1.0 Au
Au7 1.0000000000 0.9077826247 0.2328546287 0.6397192835  Biso 1.0 Au
Au8 1.0000000000 0.4077826247 0.2671453713 0.3602807165  Biso 1.0 Au
Au9 1.0000000000 0.8602807165 0.5922173753 0.2328546287  Biso 1.0 Au
Au10 1.0000000000 0.1397192835 0.0922173753 0.2671453713  Biso 1.0 Au
Au11 1.0000000000 0.3602807165 0.9077826247 0.7671453713  Biso 1.0 Au
Au12 1.0000000000 0.6397192835 0.4077826247 0.7328546287  Biso 1.0 Au
Au13 1.0000000000 0.2328546287 0.1397192835 0.5922173753  Biso 1.0 Au
Au14 1.0000000000 0.2671453713 0.8602807165 0.0922173753  Biso 1.0 Au
Au15 1.0000000000 0.7671453713 0.6397192835 0.9077826247  Biso 1.0 Au
Au16 1.0000000000 0.7328546287 0.3602807165 0.4077826247  Biso 1.0 Au
Au17 1.0000000000 0.4077826247 0.2328546287 0.8602807165  Biso 1.0 Au
Au18 1.0000000000 0.9077826247 0.2671453713 0.1397192835  Biso 1.0 Au
Au19 1.0000000000 0.0922173753 0.7671453713 0.3602807165  Biso 1.0 Au
Au20 1.0000000000 0.5922173753 0.7328546287 0.6397192835  Biso 1.0 Au
Au21 1.0000000000 0.1397192835 0.4077826247 0.7671453713  Biso 1.0 Au
Au22 1.0000000000 0.8602807165 0.9077826247 0.7328546287  Biso 1.0 Au
Au23 1.0000000000 0.6397192835 0.0922173753 0.2328546287  Biso 1.0 Au
Au24 1.0000000000 0.3602807165 0.5922173753 0.2671453713  Biso 1.0 Au
Ge25 1.0000000000 0.6116755610 0.6116755610 0.3883244390  Biso 1.0 Ge
Ge26 1.0000000000 0.8883244390 0.3883244390 0.8883244390  Biso 1.0 Ge
Ge27 1.0000000000 0.3883244390 0.1116755610 0.1116755610  Biso 1.0 Ge
Ge28 1.0000000000 0.1116755610 0.8883244390 0.6116755610  Biso 1.0 Ge
Ge29 1.0000000000 0.3883244390 0.3883244390 0.6116755610  Biso 1.0 Ge
Ge30 1.0000000000 0.1116755610 0.6116755610 0.1116755610  Biso 1.0 Ge
Ge31 1.0000000000 0.6116755610 0.8883244390 0.8883244390  Biso 1.0 Ge
Ge32 1.0000000000 0.8883244390 0.1116755610 0.3883244390  Biso 1.0 Ge
Na33 1.0000000000 0.8997987746 0.8997987746 0.1002012254  Biso 1.0 Na
Na34 1.0000000000 0.6002012254 0.1002012254 0.6002012254  Biso 1.0 Na
Na35 1.0000000000 0.1002012254 0.3997987746 0.3997987746  Biso 1.0 Na
Na36 1.0000000000 0.3997987746 0.6002012254 0.8997987746  Biso 1.0 Na
Na37 1.0000000000 0.1002012254 0.1002012254 0.8997987746  Biso 1.0 Na
Na38 1.0000000000 0.3997987746 0.8997987746 0.3997987746  Biso 1.0 Na
Na39 1.0000000000 0.8997987746 0.6002012254 0.6002012254  Biso 1.0 Na
Na40 1.0000000000 0.6002012254 0.3997987746 0.1002012254  Biso 1.0 Na
