# AFLOW.org Repositories
# Au3Rb2   [ORCI,ORCI,oI10] (STD_PRIM doi:
data_Au3Rb2
_pd_phase_name Au3Rb2
_cell_length_a  6.4788293706
_cell_length_b  6.4788293706
_cell_length_c  6.4788293706
_cell_angle_alpha  133.8987034492
_cell_angle_beta  128.8026025409
_cell_angle_gamma  71.3355793496
_symmetry_space_group_name_H-M  'P1'
_symmetry_Int_Tables_Number  1
loop_
_symmetry_equiv_pos_site_id
_symmetry_equiv_pos_as_xyz
  1  x,y,z
loop_
 _atom_site_label
 _atom_site_occupancy
 _atom_site_fract_x
 _atom_site_fract_y
 _atom_site_fract_z
 _atom_site_thermal_displace_type
 _atom_site_B_iso_or_equiv
 _atom_site_type_symbol
Au1 1.0000000000 0.0000000000 0.0000000000 0.0000000000  Biso 1.0 Au
Au2 1.0000000000 0.2534044514 0.5000000000 0.7534044514  Biso 1.0 Au
Au3 1.0000000000 0.7465955486 0.5000000000 0.2465955486  Biso 1.0 Au
Rb4 1.0000000000 0.6960084320 0.1960084320 0.5000000000  Biso 1.0 Rb
Rb5 1.0000000000 0.3039915680 0.8039915680 0.5000000000  Biso 1.0 Rb
