# AFLOW.org Repositories
# Au3Sr7   [HEX,HEX,hP20] (STD_PRIM doi:10
data_Au3Sr7
_pd_phase_name Au3Sr7
_cell_length_a  11.1292117756
_cell_length_b  11.1292117756
_cell_length_c  7.1801201604
_cell_angle_alpha  90.0000000000
_cell_angle_beta  90.0000000000
_cell_angle_gamma  120.0000000000
_symmetry_space_group_name_H-M  'P1'
_symmetry_Int_Tables_Number  1
loop_
_symmetry_equiv_pos_site_id
_symmetry_equiv_pos_as_xyz
  1  x,y,z
loop_
 _atom_site_label
 _atom_site_occupancy
 _atom_site_fract_x
 _atom_site_fract_y
 _atom_site_fract_z
 _atom_site_thermal_displace_type
 _atom_site_B_iso_or_equiv
 _atom_site_type_symbol
Au1 1.0000000000 0.3765294589 0.1882647295 0.3319788126  Biso 1.0 Au
Au2 1.0000000000 0.8117265788 0.1882762284 0.3319938124  Biso 1.0 Au
Au3 1.0000000000 0.8117265788 0.6234503504 0.3319938124  Biso 1.0 Au
Au4 1.0000000000 0.6234705411 0.8117352705 0.8319788126  Biso 1.0 Au
Au5 1.0000000000 0.1882734212 0.8117237716 0.8319938124  Biso 1.0 Au
Au6 1.0000000000 0.1882734212 0.3765496496 0.8319938124  Biso 1.0 Au
Sr7 1.0000000000 0.3333252246 0.6666626123 0.0483172390  Biso 1.0 Sr
Sr8 1.0000000000 0.6666747754 0.3333373877 0.5483172390  Biso 1.0 Sr
Sr9 1.0000000000 0.7509119059 0.8754559530 0.2484415884  Biso 1.0 Sr
Sr10 1.0000000000 0.1245468488 0.8754485506 0.2484371181  Biso 1.0 Sr
Sr11 1.0000000000 0.1245468488 0.2490982983 0.2484371181  Biso 1.0 Sr
Sr12 1.0000000000 0.2490880941 0.1245440470 0.7484415884  Biso 1.0 Sr
Sr13 1.0000000000 0.8754531512 0.1245514494 0.7484371181  Biso 1.0 Sr
Sr14 1.0000000000 0.8754531512 0.7509017017 0.7484371181  Biso 1.0 Sr
Sr15 1.0000000000 0.9146455922 0.4573227961 0.0654681305  Biso 1.0 Sr
Sr16 1.0000000000 0.5426831372 0.4573151968 0.0654661843  Biso 1.0 Sr
Sr17 1.0000000000 0.5426831372 0.0853679404 0.0654661843  Biso 1.0 Sr
Sr18 1.0000000000 0.0853544078 0.5426772039 0.5654681305  Biso 1.0 Sr
Sr19 1.0000000000 0.4573168628 0.5426848032 0.5654661843  Biso 1.0 Sr
Sr20 1.0000000000 0.4573168628 0.9146320596 0.5654661843  Biso 1.0 Sr
