# AFLOW.org Repositories
# Au3Zn1   [ORCC,ORCC,oS32] (STD_PRIM doi:
data_Au3Zn1
_pd_phase_name Au3Zn1
_cell_length_a  8.9010519076
_cell_length_b  8.9010519076
_cell_length_c  5.6501760216
_cell_angle_alpha  90.0000000000
_cell_angle_beta  90.0000000000
_cell_angle_gamma  142.8941043466
_symmetry_space_group_name_H-M  'P1'
_symmetry_Int_Tables_Number  1
loop_
_symmetry_equiv_pos_site_id
_symmetry_equiv_pos_as_xyz
  1  x,y,z
loop_
 _atom_site_label
 _atom_site_occupancy
 _atom_site_fract_x
 _atom_site_fract_y
 _atom_site_fract_z
 _atom_site_thermal_displace_type
 _atom_site_B_iso_or_equiv
 _atom_site_type_symbol
Au1 1.0000000000 0.8796472038 0.1203527962 0.0000000000  Biso 1.0 Au
Au2 1.0000000000 0.6203527962 0.3796472038 0.5000000000  Biso 1.0 Au
Au3 1.0000000000 0.1203527962 0.8796472038 0.0000000000  Biso 1.0 Au
Au4 1.0000000000 0.3796472038 0.6203527962 0.5000000000  Biso 1.0 Au
Au5 1.0000000000 0.4983929009 0.9983929009 0.2500000000  Biso 1.0 Au
Au6 1.0000000000 0.0016070991 0.5016070991 0.7500000000  Biso 1.0 Au
Au7 1.0000000000 0.5016070991 0.0016070991 0.7500000000  Biso 1.0 Au
Au8 1.0000000000 0.9983929009 0.4983929009 0.2500000000  Biso 1.0 Au
Au9 1.0000000000 0.8165278867 0.8165278867 0.3161362500  Biso 1.0 Au
Au10 1.0000000000 0.6834721133 0.6834721133 0.8161362500  Biso 1.0 Au
Au11 1.0000000000 0.3165278867 0.3165278867 0.1838637500  Biso 1.0 Au
Au12 1.0000000000 0.1834721133 0.1834721133 0.6838637500  Biso 1.0 Au
Zn13 1.0000000000 0.6349058496 0.3650941504 0.0000000000  Biso 1.0 Zn
Zn14 1.0000000000 0.8650941504 0.1349058496 0.5000000000  Biso 1.0 Zn
Zn15 1.0000000000 0.3650941504 0.6349058496 0.0000000000  Biso 1.0 Zn
Zn16 1.0000000000 0.1349058496 0.8650941504 0.5000000000  Biso 1.0 Zn
