# AFLOW.org Repositories
# Au4Ti1   [BCT,BCT1,tI10] (STD_PRIM doi:1
data_Au4Ti1
_pd_phase_name Au4Ti1
_cell_length_a  5.0673808233
_cell_length_b  5.0673808233
_cell_length_c  5.0673808233
_cell_angle_alpha  99.2575185638
_cell_angle_beta  99.2575185638
_cell_angle_gamma  132.7074978785
_symmetry_space_group_name_H-M  'P1'
_symmetry_Int_Tables_Number  1
loop_
_symmetry_equiv_pos_site_id
_symmetry_equiv_pos_as_xyz
  1  x,y,z
loop_
 _atom_site_label
 _atom_site_occupancy
 _atom_site_fract_x
 _atom_site_fract_y
 _atom_site_fract_z
 _atom_site_thermal_displace_type
 _atom_site_B_iso_or_equiv
 _atom_site_type_symbol
Au1 1.0000000000 0.6042340300 0.7938552464 0.3980892764  Biso 1.0 Au
Au2 1.0000000000 0.3957659700 0.2061447536 0.6019107236  Biso 1.0 Au
Au3 1.0000000000 0.7938552464 0.3957659700 0.1896212164  Biso 1.0 Au
Au4 1.0000000000 0.2061447536 0.6042340300 0.8103787836  Biso 1.0 Au
Ti5 1.0000000000 0.0000000000 0.0000000000 0.0000000000  Biso 1.0 Ti
