# AFLOW.org Repositories
# Au6In5Na2   [CUB,CUB,cP39] (STD_PRIM doi
data_Au6In5Na2
_pd_phase_name Au6In5Na2
_cell_length_a  9.4610451054
_cell_length_b  9.4610451054
_cell_length_c  9.4610451054
_cell_angle_alpha  90.0000000000
_cell_angle_beta  90.0000000000
_cell_angle_gamma  90.0000000000
_symmetry_space_group_name_H-M  'P1'
_symmetry_Int_Tables_Number  1
loop_
_symmetry_equiv_pos_site_id
_symmetry_equiv_pos_as_xyz
  1  x,y,z
loop_
 _atom_site_label
 _atom_site_occupancy
 _atom_site_fract_x
 _atom_site_fract_y
 _atom_site_fract_z
 _atom_site_thermal_displace_type
 _atom_site_B_iso_or_equiv
 _atom_site_type_symbol
Au1 1.0000000000 0.0000000000 0.8279246749 0.2599220157  Biso 1.0 Au
Au2 1.0000000000 0.0000000000 0.1720753251 0.2599220157  Biso 1.0 Au
Au3 1.0000000000 0.0000000000 0.8279246749 0.7400779843  Biso 1.0 Au
Au4 1.0000000000 0.0000000000 0.1720753251 0.7400779843  Biso 1.0 Au
Au5 1.0000000000 0.7400779843 0.0000000000 0.1720753251  Biso 1.0 Au
Au6 1.0000000000 0.7400779843 0.0000000000 0.8279246749  Biso 1.0 Au
Au7 1.0000000000 0.2599220157 0.0000000000 0.1720753251  Biso 1.0 Au
Au8 1.0000000000 0.2599220157 0.0000000000 0.8279246749  Biso 1.0 Au
Au9 1.0000000000 0.8279246749 0.7400779843 0.0000000000  Biso 1.0 Au
Au10 1.0000000000 0.1720753251 0.7400779843 0.0000000000  Biso 1.0 Au
Au11 1.0000000000 0.8279246749 0.2599220157 0.0000000000  Biso 1.0 Au
Au12 1.0000000000 0.1720753251 0.2599220157 0.0000000000  Biso 1.0 Au
Au13 1.0000000000 0.7397354346 0.5000000000 0.5000000000  Biso 1.0 Au
Au14 1.0000000000 0.2602645654 0.5000000000 0.5000000000  Biso 1.0 Au
Au15 1.0000000000 0.5000000000 0.7397354346 0.5000000000  Biso 1.0 Au
Au16 1.0000000000 0.5000000000 0.2602645654 0.5000000000  Biso 1.0 Au
Au17 1.0000000000 0.5000000000 0.5000000000 0.2602645654  Biso 1.0 Au
Au18 1.0000000000 0.5000000000 0.5000000000 0.7397354346  Biso 1.0 Au
In19 1.0000000000 0.7162374392 0.7162374392 0.2837625608  Biso 1.0 In
In20 1.0000000000 0.2837625608 0.2837625608 0.2837625608  Biso 1.0 In
In21 1.0000000000 0.2837625608 0.7162374392 0.7162374392  Biso 1.0 In
In22 1.0000000000 0.7162374392 0.2837625608 0.7162374392  Biso 1.0 In
In23 1.0000000000 0.2837625608 0.2837625608 0.7162374392  Biso 1.0 In
In24 1.0000000000 0.7162374392 0.7162374392 0.7162374392  Biso 1.0 In
In25 1.0000000000 0.7162374392 0.2837625608 0.2837625608  Biso 1.0 In
In26 1.0000000000 0.2837625608 0.7162374392 0.2837625608  Biso 1.0 In
In27 1.0000000000 0.6647769852 0.5000000000 0.0000000000  Biso 1.0 In
In28 1.0000000000 0.3352230148 0.5000000000 0.0000000000  Biso 1.0 In
In29 1.0000000000 0.0000000000 0.6647769852 0.5000000000  Biso 1.0 In
In30 1.0000000000 0.0000000000 0.3352230148 0.5000000000  Biso 1.0 In
In31 1.0000000000 0.5000000000 0.0000000000 0.3352230148  Biso 1.0 In
In32 1.0000000000 0.5000000000 0.0000000000 0.6647769852  Biso 1.0 In
In33 1.0000000000 0.0000000000 0.0000000000 0.0000000000  Biso 1.0 In
Na34 1.0000000000 0.8274340036 0.0000000000 0.5000000000  Biso 1.0 Na
Na35 1.0000000000 0.1725659964 0.0000000000 0.5000000000  Biso 1.0 Na
Na36 1.0000000000 0.5000000000 0.8274340036 0.0000000000  Biso 1.0 Na
Na37 1.0000000000 0.5000000000 0.1725659964 0.0000000000  Biso 1.0 Na
Na38 1.0000000000 0.0000000000 0.5000000000 0.1725659964  Biso 1.0 Na
Na39 1.0000000000 0.0000000000 0.5000000000 0.8274340036  Biso 1.0 Na
