# AFLOW.org Repositories
# Au7I1P10   [HEX,HEX,hP18] (STD_PRIM doi:
data_Au7I1P10
_pd_phase_name Au7I1P10
_cell_length_a  6.2704260443
_cell_length_b  6.2704260443
_cell_length_c  11.4239007761
_cell_angle_alpha  90.0000000000
_cell_angle_beta  90.0000000000
_cell_angle_gamma  120.0000000000
_symmetry_space_group_name_H-M  'P1'
_symmetry_Int_Tables_Number  1
loop_
_symmetry_equiv_pos_site_id
_symmetry_equiv_pos_as_xyz
  1  x,y,z
loop_
 _atom_site_label
 _atom_site_occupancy
 _atom_site_fract_x
 _atom_site_fract_y
 _atom_site_fract_z
 _atom_site_thermal_displace_type
 _atom_site_B_iso_or_equiv
 _atom_site_type_symbol
Au1 1.0000000000 0.5468058414 0.5468058414 0.0000000000  Biso 1.0 Au
Au2 1.0000000000 0.4531938299 0.0000000000 0.0000000000  Biso 1.0 Au
Au3 1.0000000000 0.0000000000 0.4531918035 0.0000000000  Biso 1.0 Au
Au4 1.0000000000 0.3333472384 0.6666757475 0.5000000000  Biso 1.0 Au
Au5 1.0000000000 0.6666527616 0.3333285092 0.5000000000  Biso 1.0 Au
Au6 1.0000000000 0.0000000000 0.0000000000 0.2336458866  Biso 1.0 Au
Au7 1.0000000000 0.0000000000 0.0000000000 0.7663541134  Biso 1.0 Au
I8 1.0000000000 0.0000000000 0.0000000000 0.5000000000  Biso 1.0 I
P9 1.0000000000 0.3333359141 0.6666673459 0.2935427383  Biso 1.0 P
P10 1.0000000000 0.3333359141 0.6666673459 0.7064572617  Biso 1.0 P
P11 1.0000000000 0.6666640859 0.3333314318 0.7064572617  Biso 1.0 P
P12 1.0000000000 0.6666640859 0.3333314318 0.2935427383  Biso 1.0 P
P13 1.0000000000 0.6223911335 0.6223911335 0.2033461650  Biso 1.0 P
P14 1.0000000000 0.3776100082 0.0000000000 0.2033461650  Biso 1.0 P
P15 1.0000000000 0.0000000000 0.3776088098 0.2033462181  Biso 1.0 P
P16 1.0000000000 0.6223911335 0.6223911335 0.7966538350  Biso 1.0 P
P17 1.0000000000 0.3776100082 0.0000000000 0.7966538350  Biso 1.0 P
P18 1.0000000000 0.0000000000 0.3776088098 0.7966537819  Biso 1.0 P
