# AFLOW.org Repositories
# Au9In4   [CUB,CUB,cP52] (STD_PRIM doi:10
data_Au9In4
_pd_phase_name Au9In4
_cell_length_a  9.9882758417
_cell_length_b  9.9882758417
_cell_length_c  9.9882758417
_cell_angle_alpha  90.0000000000
_cell_angle_beta  90.0000000000
_cell_angle_gamma  90.0000000000
_symmetry_space_group_name_H-M  'P1'
_symmetry_Int_Tables_Number  1
loop_
_symmetry_equiv_pos_site_id
_symmetry_equiv_pos_as_xyz
  1  x,y,z
loop_
 _atom_site_label
 _atom_site_occupancy
 _atom_site_fract_x
 _atom_site_fract_y
 _atom_site_fract_z
 _atom_site_thermal_displace_type
 _atom_site_B_iso_or_equiv
 _atom_site_type_symbol
Au1 1.0000000000 0.1676735616 0.1676735616 0.8323264384  Biso 1.0 Au
Au2 1.0000000000 0.8323264384 0.8323264384 0.8323264384  Biso 1.0 Au
Au3 1.0000000000 0.8323264384 0.1676735616 0.1676735616  Biso 1.0 Au
Au4 1.0000000000 0.1676735616 0.8323264384 0.1676735616  Biso 1.0 Au
Au5 1.0000000000 0.6748484266 0.6748484266 0.3251515734  Biso 1.0 Au
Au6 1.0000000000 0.3251515734 0.3251515734 0.3251515734  Biso 1.0 Au
Au7 1.0000000000 0.3251515734 0.6748484266 0.6748484266  Biso 1.0 Au
Au8 1.0000000000 0.6748484266 0.3251515734 0.6748484266  Biso 1.0 Au
Au9 1.0000000000 0.3902016041 0.3902016041 0.6097983959  Biso 1.0 Au
Au10 1.0000000000 0.6097983959 0.6097983959 0.6097983959  Biso 1.0 Au
Au11 1.0000000000 0.6097983959 0.3902016041 0.3902016041  Biso 1.0 Au
Au12 1.0000000000 0.3902016041 0.6097983959 0.3902016041  Biso 1.0 Au
Au13 1.0000000000 0.6407702291 0.0000000000 0.0000000000  Biso 1.0 Au
Au14 1.0000000000 0.3592297709 0.0000000000 0.0000000000  Biso 1.0 Au
Au15 1.0000000000 0.0000000000 0.6407702291 0.0000000000  Biso 1.0 Au
Au16 1.0000000000 0.0000000000 0.3592297709 0.0000000000  Biso 1.0 Au
Au17 1.0000000000 0.0000000000 0.0000000000 0.3592297709  Biso 1.0 Au
Au18 1.0000000000 0.0000000000 0.0000000000 0.6407702291  Biso 1.0 Au
Au19 1.0000000000 0.1421160305 0.5000000000 0.5000000000  Biso 1.0 Au
Au20 1.0000000000 0.8578839695 0.5000000000 0.5000000000  Biso 1.0 Au
Au21 1.0000000000 0.5000000000 0.1421160305 0.5000000000  Biso 1.0 Au
Au22 1.0000000000 0.5000000000 0.8578839695 0.5000000000  Biso 1.0 Au
Au23 1.0000000000 0.5000000000 0.5000000000 0.8578839695  Biso 1.0 Au
Au24 1.0000000000 0.5000000000 0.5000000000 0.1421160305  Biso 1.0 Au
Au25 1.0000000000 0.6827749955 0.6827749955 0.0286794653  Biso 1.0 Au
Au26 1.0000000000 0.3172250045 0.3172250045 0.0286794653  Biso 1.0 Au
Au27 1.0000000000 0.3172250045 0.6827749955 0.9713205347  Biso 1.0 Au
Au28 1.0000000000 0.6827749955 0.3172250045 0.9713205347  Biso 1.0 Au
Au29 1.0000000000 0.9713205347 0.6827749955 0.3172250045  Biso 1.0 Au
Au30 1.0000000000 0.9713205347 0.3172250045 0.6827749955  Biso 1.0 Au
Au31 1.0000000000 0.0286794653 0.3172250045 0.3172250045  Biso 1.0 Au
Au32 1.0000000000 0.0286794653 0.6827749955 0.6827749955  Biso 1.0 Au
Au33 1.0000000000 0.6827749955 0.9713205347 0.3172250045  Biso 1.0 Au
Au34 1.0000000000 0.3172250045 0.9713205347 0.6827749955  Biso 1.0 Au
Au35 1.0000000000 0.6827749955 0.0286794653 0.6827749955  Biso 1.0 Au
Au36 1.0000000000 0.3172250045 0.0286794653 0.3172250045  Biso 1.0 Au
In37 1.0000000000 0.8745152243 0.8745152243 0.1254847757  Biso 1.0 In
In38 1.0000000000 0.1254847757 0.1254847757 0.1254847757  Biso 1.0 In
In39 1.0000000000 0.1254847757 0.8745152243 0.8745152243  Biso 1.0 In
In40 1.0000000000 0.8745152243 0.1254847757 0.8745152243  Biso 1.0 In
In41 1.0000000000 0.1894824298 0.1894824298 0.5334668686  Biso 1.0 In
In42 1.0000000000 0.8105175702 0.8105175702 0.5334668686  Biso 1.0 In
In43 1.0000000000 0.8105175702 0.1894824298 0.4665331314  Biso 1.0 In
In44 1.0000000000 0.1894824298 0.8105175702 0.4665331314  Biso 1.0 In
In45 1.0000000000 0.4665331314 0.1894824298 0.8105175702  Biso 1.0 In
In46 1.0000000000 0.4665331314 0.8105175702 0.1894824298  Biso 1.0 In
In47 1.0000000000 0.5334668686 0.8105175702 0.8105175702  Biso 1.0 In
In48 1.0000000000 0.5334668686 0.1894824298 0.1894824298  Biso 1.0 In
In49 1.0000000000 0.1894824298 0.4665331314 0.8105175702  Biso 1.0 In
In50 1.0000000000 0.8105175702 0.4665331314 0.1894824298  Biso 1.0 In
In51 1.0000000000 0.1894824298 0.5334668686 0.1894824298  Biso 1.0 In
In52 1.0000000000 0.8105175702 0.5334668686 0.8105175702  Biso 1.0 In
