# AFLOW.org Repositories
# B12H12Tl2   [FCC,FCC,cF104] (STD_PRIM do
data_B12H12Tl2
_pd_phase_name B12H12Tl2
_cell_length_a  7.6773500061
_cell_length_b  7.6773500061
_cell_length_c  7.6773500061
_cell_angle_alpha  60.0000000000
_cell_angle_beta  60.0000000000
_cell_angle_gamma  60.0000000000
_symmetry_space_group_name_H-M  'P1'
_symmetry_Int_Tables_Number  1
loop_
_symmetry_equiv_pos_site_id
_symmetry_equiv_pos_as_xyz
  1  x,y,z
loop_
 _atom_site_label
 _atom_site_occupancy
 _atom_site_fract_x
 _atom_site_fract_y
 _atom_site_fract_z
 _atom_site_thermal_displace_type
 _atom_site_B_iso_or_equiv
 _atom_site_type_symbol
B1 1.0000000000 0.9489775009 0.2143516235 0.0510224991  Biso 1.0 B
B2 1.0000000000 0.7856483765 0.0510224991 0.2143516235  Biso 1.0 B
B3 1.0000000000 0.2143516235 0.9489775009 0.7856483765  Biso 1.0 B
B4 1.0000000000 0.0510224991 0.7856483765 0.9489775009  Biso 1.0 B
B5 1.0000000000 0.0510224991 0.9489775009 0.2143516235  Biso 1.0 B
B6 1.0000000000 0.2143516235 0.7856483765 0.0510224991  Biso 1.0 B
B7 1.0000000000 0.7856483765 0.2143516235 0.9489775009  Biso 1.0 B
B8 1.0000000000 0.9489775009 0.0510224991 0.7856483765  Biso 1.0 B
B9 1.0000000000 0.2143516235 0.0510224991 0.9489775009  Biso 1.0 B
B10 1.0000000000 0.0510224991 0.2143516235 0.7856483765  Biso 1.0 B
B11 1.0000000000 0.9489775009 0.7856483765 0.2143516235  Biso 1.0 B
B12 1.0000000000 0.7856483765 0.9489775009 0.0510224991  Biso 1.0 B
H13 1.0000000000 0.9122703548 0.3671889400 0.0877296452  Biso 1.0 H
H14 1.0000000000 0.6328110600 0.0877296452 0.3671889400  Biso 1.0 H
H15 1.0000000000 0.3671889400 0.9122703548 0.6328110600  Biso 1.0 H
H16 1.0000000000 0.0877296452 0.6328110600 0.9122703548  Biso 1.0 H
H17 1.0000000000 0.0877296452 0.9122703548 0.3671889400  Biso 1.0 H
H18 1.0000000000 0.3671889400 0.6328110600 0.0877296452  Biso 1.0 H
H19 1.0000000000 0.6328110600 0.3671889400 0.9122703548  Biso 1.0 H
H20 1.0000000000 0.9122703548 0.0877296452 0.6328110600  Biso 1.0 H
H21 1.0000000000 0.3671889400 0.0877296452 0.9122703548  Biso 1.0 H
H22 1.0000000000 0.0877296452 0.3671889400 0.6328110600  Biso 1.0 H
H23 1.0000000000 0.9122703548 0.6328110600 0.3671889400  Biso 1.0 H
H24 1.0000000000 0.6328110600 0.9122703548 0.0877296452  Biso 1.0 H
Tl25 1.0000000000 0.2500000000 0.2500000000 0.2500000000  Biso 1.0 Tl
Tl26 1.0000000000 0.7500000000 0.7500000000 0.7500000000  Biso 1.0 Tl
