# AFLOW.org Repositories
# B12Sc1   [BCT,BCT2,tI26] (STD_PRIM doi:1
data_B12Sc1
_pd_phase_name B12Sc1
_cell_length_a  5.2476816826
_cell_length_b  5.2476816826
_cell_length_c  5.2476816826
_cell_angle_alpha  119.9173915999
_cell_angle_beta  119.9173915999
_cell_angle_gamma  90.1431415973
_symmetry_space_group_name_H-M  'P1'
_symmetry_Int_Tables_Number  1
loop_
_symmetry_equiv_pos_site_id
_symmetry_equiv_pos_as_xyz
  1  x,y,z
loop_
 _atom_site_label
 _atom_site_occupancy
 _atom_site_fract_x
 _atom_site_fract_y
 _atom_site_fract_z
 _atom_site_thermal_displace_type
 _atom_site_B_iso_or_equiv
 _atom_site_type_symbol
B1 1.0000000000 0.8388586287 0.5000000000 0.3388586287  Biso 1.0 B
B2 1.0000000000 0.1611413713 0.5000000000 0.6611413713  Biso 1.0 B
B3 1.0000000000 0.5000000000 0.1611413713 0.6611413713  Biso 1.0 B
B4 1.0000000000 0.5000000000 0.8388586287 0.3388586287  Biso 1.0 B
B5 1.0000000000 0.1617602077 0.5002657576 0.0000000000  Biso 1.0 B
B6 1.0000000000 0.5002657576 0.1617602077 0.0000000000  Biso 1.0 B
B7 1.0000000000 0.5002657576 0.5002657576 0.3385055499  Biso 1.0 B
B8 1.0000000000 0.1617602077 0.1617602077 0.6614944501  Biso 1.0 B
B9 1.0000000000 0.8382397923 0.8382397923 0.3385055499  Biso 1.0 B
B10 1.0000000000 0.4997342424 0.4997342424 0.6614944501  Biso 1.0 B
B11 1.0000000000 0.4997342424 0.8382397923 0.0000000000  Biso 1.0 B
B12 1.0000000000 0.8382397923 0.4997342424 0.0000000000  Biso 1.0 B
Sc13 1.0000000000 0.0000000000 0.0000000000 0.0000000000  Biso 1.0 Sc
