# AFLOW.org Repositories
# B1   [TET,TET,tP48] (STD_PRIM doi:10.101
data_B1
_pd_phase_name B1
_cell_length_a  8.6368212570
_cell_length_b  8.6368212570
_cell_length_c  5.0100582891
_cell_angle_alpha  90.0000000000
_cell_angle_beta  90.0000000000
_cell_angle_gamma  90.0000000000
_symmetry_space_group_name_H-M  'P1'
_symmetry_Int_Tables_Number  1
loop_
_symmetry_equiv_pos_site_id
_symmetry_equiv_pos_as_xyz
  1  x,y,z
loop_
 _atom_site_label
 _atom_site_occupancy
 _atom_site_fract_x
 _atom_site_fract_y
 _atom_site_fract_z
 _atom_site_thermal_displace_type
 _atom_site_B_iso_or_equiv
 _atom_site_type_symbol
B1 1.0000000000 0.3289865249 0.0836961227 0.4042909671  Biso 1.0 B
B2 1.0000000000 0.6710134751 0.9163038773 0.4042909671  Biso 1.0 B
B3 1.0000000000 0.0836961227 0.6710134751 0.5957090329  Biso 1.0 B
B4 1.0000000000 0.9163038773 0.3289865249 0.5957090329  Biso 1.0 B
B5 1.0000000000 0.8289865249 0.4163038773 0.9042909671  Biso 1.0 B
B6 1.0000000000 0.1710134751 0.5836961227 0.9042909671  Biso 1.0 B
B7 1.0000000000 0.5836961227 0.8289865249 0.0957090329  Biso 1.0 B
B8 1.0000000000 0.4163038773 0.1710134751 0.0957090329  Biso 1.0 B
B9 1.0000000000 0.0836961227 0.3289865249 0.4042909671  Biso 1.0 B
B10 1.0000000000 0.9163038773 0.6710134751 0.4042909671  Biso 1.0 B
B11 1.0000000000 0.3289865249 0.9163038773 0.5957090329  Biso 1.0 B
B12 1.0000000000 0.6710134751 0.0836961227 0.5957090329  Biso 1.0 B
B13 1.0000000000 0.5836961227 0.1710134751 0.9042909671  Biso 1.0 B
B14 1.0000000000 0.4163038773 0.8289865249 0.9042909671  Biso 1.0 B
B15 1.0000000000 0.8289865249 0.5836961227 0.0957090329  Biso 1.0 B
B16 1.0000000000 0.1710134751 0.4163038773 0.0957090329  Biso 1.0 B
B17 1.0000000000 0.2270035323 0.0829524520 0.0909552374  Biso 1.0 B
B18 1.0000000000 0.7729964677 0.9170475480 0.0909552374  Biso 1.0 B
B19 1.0000000000 0.0829524520 0.7729964677 0.9090447626  Biso 1.0 B
B20 1.0000000000 0.9170475480 0.2270035323 0.9090447626  Biso 1.0 B
B21 1.0000000000 0.7270035323 0.4170475480 0.5909552374  Biso 1.0 B
B22 1.0000000000 0.2729964677 0.5829524520 0.5909552374  Biso 1.0 B
B23 1.0000000000 0.5829524520 0.7270035323 0.4090447626  Biso 1.0 B
B24 1.0000000000 0.4170475480 0.2729964677 0.4090447626  Biso 1.0 B
B25 1.0000000000 0.0829524520 0.2270035323 0.0909552374  Biso 1.0 B
B26 1.0000000000 0.9170475480 0.7729964677 0.0909552374  Biso 1.0 B
B27 1.0000000000 0.2270035323 0.9170475480 0.9090447626  Biso 1.0 B
B28 1.0000000000 0.7729964677 0.0829524520 0.9090447626  Biso 1.0 B
B29 1.0000000000 0.5829524520 0.2729964677 0.5909552374  Biso 1.0 B
B30 1.0000000000 0.4170475480 0.7270035323 0.5909552374  Biso 1.0 B
B31 1.0000000000 0.7270035323 0.5829524520 0.4090447626  Biso 1.0 B
B32 1.0000000000 0.2729964677 0.4170475480 0.4090447626  Biso 1.0 B
B33 1.0000000000 0.1254156057 0.1254156057 0.3826125077  Biso 1.0 B
B34 1.0000000000 0.8745843943 0.8745843943 0.3826125077  Biso 1.0 B
B35 1.0000000000 0.1254156057 0.8745843943 0.6173874923  Biso 1.0 B
B36 1.0000000000 0.8745843943 0.1254156057 0.6173874923  Biso 1.0 B
B37 1.0000000000 0.6254156057 0.3745843943 0.8826125077  Biso 1.0 B
B38 1.0000000000 0.3745843943 0.6254156057 0.8826125077  Biso 1.0 B
B39 1.0000000000 0.6254156057 0.6254156057 0.1173874923  Biso 1.0 B
B40 1.0000000000 0.3745843943 0.3745843943 0.1173874923  Biso 1.0 B
B41 1.0000000000 0.2554676128 0.2554676128 0.9197356188  Biso 1.0 B
B42 1.0000000000 0.7445323872 0.7445323872 0.9197356188  Biso 1.0 B
B43 1.0000000000 0.2554676128 0.7445323872 0.0802643812  Biso 1.0 B
B44 1.0000000000 0.7445323872 0.2554676128 0.0802643812  Biso 1.0 B
B45 1.0000000000 0.7554676128 0.2445323872 0.4197356188  Biso 1.0 B
B46 1.0000000000 0.2445323872 0.7554676128 0.4197356188  Biso 1.0 B
B47 1.0000000000 0.7554676128 0.7554676128 0.5802643812  Biso 1.0 B
B48 1.0000000000 0.2445323872 0.2445323872 0.5802643812  Biso 1.0 B
