# AFLOW.org Repositories
# B1C7   [CUB,CUB,cP8] (STD_PRIM doi:10.10
data_B1C7
_pd_phase_name B1C7
_cell_length_a  3.6201167679
_cell_length_b  3.6201167679
_cell_length_c  3.6201167679
_cell_angle_alpha  90.0000000000
_cell_angle_beta  90.0000000000
_cell_angle_gamma  90.0000000000
_symmetry_space_group_name_H-M  'P1'
_symmetry_Int_Tables_Number  1
loop_
_symmetry_equiv_pos_site_id
_symmetry_equiv_pos_as_xyz
  1  x,y,z
loop_
 _atom_site_label
 _atom_site_occupancy
 _atom_site_fract_x
 _atom_site_fract_y
 _atom_site_fract_z
 _atom_site_thermal_displace_type
 _atom_site_B_iso_or_equiv
 _atom_site_type_symbol
B1 1.0000000000 0.0000000000 0.0000000000 0.0000000000  Biso 1.0 B
C2 1.0000000000 0.5000000000 0.5000000000 0.0000000000  Biso 1.0 C
C3 1.0000000000 0.0000000000 0.5000000000 0.5000000000  Biso 1.0 C
C4 1.0000000000 0.5000000000 0.0000000000 0.5000000000  Biso 1.0 C
C5 1.0000000000 0.7452681213 0.7452681213 0.2547318787  Biso 1.0 C
C6 1.0000000000 0.2547318787 0.2547318787 0.2547318787  Biso 1.0 C
C7 1.0000000000 0.2547318787 0.7452681213 0.7452681213  Biso 1.0 C
C8 1.0000000000 0.7452681213 0.2547318787 0.7452681213  Biso 1.0 C
