# AFLOW.org Repositories
# B1Co1Re1   [ORC,ORC,oP12] (STD_PRIM doi:
data_B1Co1Re1
_pd_phase_name B1Co1Re1
_cell_length_a  2.9849928564
_cell_length_b  5.8904586219
_cell_length_c  7.2305206292
_cell_angle_alpha  90.0000000000
_cell_angle_beta  90.0000000000
_cell_angle_gamma  90.0000000000
_symmetry_space_group_name_H-M  'P1'
_symmetry_Int_Tables_Number  1
loop_
_symmetry_equiv_pos_site_id
_symmetry_equiv_pos_as_xyz
  1  x,y,z
loop_
 _atom_site_label
 _atom_site_occupancy
 _atom_site_fract_x
 _atom_site_fract_y
 _atom_site_fract_z
 _atom_site_thermal_displace_type
 _atom_site_B_iso_or_equiv
 _atom_site_type_symbol
B1 1.0000000000 0.2500000000 0.7772159069 0.3437005698  Biso 1.0 B
B2 1.0000000000 0.7500000000 0.7227840931 0.8437005698  Biso 1.0 B
B3 1.0000000000 0.7500000000 0.2227840931 0.6562994302  Biso 1.0 B
B4 1.0000000000 0.2500000000 0.2772159069 0.1562994302  Biso 1.0 B
Co5 1.0000000000 0.2500000000 0.1515118538 0.4513432070  Biso 1.0 Co
Co6 1.0000000000 0.7500000000 0.3484881462 0.9513432070  Biso 1.0 Co
Co7 1.0000000000 0.7500000000 0.8484881462 0.5486567930  Biso 1.0 Co
Co8 1.0000000000 0.2500000000 0.6515118538 0.0486567930  Biso 1.0 Co
Re9 1.0000000000 0.2500000000 0.0069122589 0.8297393757  Biso 1.0 Re
Re10 1.0000000000 0.7500000000 0.4930877411 0.3297393757  Biso 1.0 Re
Re11 1.0000000000 0.7500000000 0.9930877411 0.1702606243  Biso 1.0 Re
Re12 1.0000000000 0.2500000000 0.5069122589 0.6702606243  Biso 1.0 Re
