# AFLOW.org Repositories
# B1Co1W1   [ORC,ORC,oP12] (STD_PRIM doi:1
data_B1Co1W1
_pd_phase_name B1Co1W1
_cell_length_a  3.2418143517
_cell_length_b  5.7261755562
_cell_length_c  6.6008723010
_cell_angle_alpha  90.0000000000
_cell_angle_beta  90.0000000000
_cell_angle_gamma  90.0000000000
_symmetry_space_group_name_H-M  'P1'
_symmetry_Int_Tables_Number  1
loop_
_symmetry_equiv_pos_site_id
_symmetry_equiv_pos_as_xyz
  1  x,y,z
loop_
 _atom_site_label
 _atom_site_occupancy
 _atom_site_fract_x
 _atom_site_fract_y
 _atom_site_fract_z
 _atom_site_thermal_displace_type
 _atom_site_B_iso_or_equiv
 _atom_site_type_symbol
B1 1.0000000000 0.2500000000 0.2727899658 0.1222214465  Biso 1.0 B
B2 1.0000000000 0.7500000000 0.2272100342 0.6222214465  Biso 1.0 B
B3 1.0000000000 0.7500000000 0.7272100342 0.8777785535  Biso 1.0 B
B4 1.0000000000 0.2500000000 0.7727899658 0.3777785535  Biso 1.0 B
Co5 1.0000000000 0.2500000000 0.1417594173 0.4425822126  Biso 1.0 Co
Co6 1.0000000000 0.7500000000 0.3582405827 0.9425822126  Biso 1.0 Co
Co7 1.0000000000 0.7500000000 0.8582405827 0.5574177874  Biso 1.0 Co
Co8 1.0000000000 0.2500000000 0.6417594173 0.0574177874  Biso 1.0 Co
W9 1.0000000000 0.2500000000 0.0263957158 0.8237036970  Biso 1.0 W
W10 1.0000000000 0.7500000000 0.4736042842 0.3237036970  Biso 1.0 W
W11 1.0000000000 0.7500000000 0.9736042842 0.1762963030  Biso 1.0 W
W12 1.0000000000 0.2500000000 0.5263957158 0.6762963030  Biso 1.0 W
