# AFLOW.org Repositories
# B1F5Li2   [BCT,BCT2,tI32] (STD_PRIM doi:
data_B1F5Li2
_pd_phase_name B1F5Li2
_cell_length_a  7.1126866817
_cell_length_b  7.1126866817
_cell_length_c  7.1126866817
_cell_angle_alpha  136.3094681561
_cell_angle_beta  136.3094681561
_cell_angle_gamma  63.5022538013
_symmetry_space_group_name_H-M  'P1'
_symmetry_Int_Tables_Number  1
loop_
_symmetry_equiv_pos_site_id
_symmetry_equiv_pos_as_xyz
  1  x,y,z
loop_
 _atom_site_label
 _atom_site_occupancy
 _atom_site_fract_x
 _atom_site_fract_y
 _atom_site_fract_z
 _atom_site_thermal_displace_type
 _atom_site_B_iso_or_equiv
 _atom_site_type_symbol
B1 1.0000000000 0.3750000000 0.1250000000 0.7500000000  Biso 1.0 B
B2 1.0000000000 0.6250000000 0.8750000000 0.2500000000  Biso 1.0 B
F3 1.0000000000 0.1250000000 0.3750000000 0.2500000000  Biso 1.0 F
F4 1.0000000000 0.8750000000 0.6250000000 0.7500000000  Biso 1.0 F
F5 1.0000000000 0.3085439206 0.2786766448 0.9701327242  Biso 1.0 F
F6 1.0000000000 0.3085439206 0.8384111963 0.5298672758  Biso 1.0 F
F7 1.0000000000 0.7786766448 0.8085439206 0.4701327242  Biso 1.0 F
F8 1.0000000000 0.3384111963 0.8085439206 0.0298672758  Biso 1.0 F
F9 1.0000000000 0.6914560794 0.1615888037 0.4701327242  Biso 1.0 F
F10 1.0000000000 0.6914560794 0.7213233552 0.0298672758  Biso 1.0 F
F11 1.0000000000 0.2213233552 0.1914560794 0.5298672758  Biso 1.0 F
F12 1.0000000000 0.6615888037 0.1914560794 0.9701327242  Biso 1.0 F
Li13 1.0000000000 0.0000000000 0.0000000000 0.0000000000  Biso 1.0 Li
Li14 1.0000000000 0.0000000000 0.5000000000 0.5000000000  Biso 1.0 Li
Li15 1.0000000000 0.5000000000 0.5000000000 0.5000000000  Biso 1.0 Li
Li16 1.0000000000 0.0000000000 0.5000000000 0.0000000000  Biso 1.0 Li
