# AFLOW.org Repositories
# B1Mg8Rh4   [FCC,FCC,cF104] (STD_PRIM doi
data_B1Mg8Rh4
_pd_phase_name B1Mg8Rh4
_cell_length_a  8.6173324081
_cell_length_b  8.6173324081
_cell_length_c  8.6173324081
_cell_angle_alpha  60.0000000000
_cell_angle_beta  60.0000000000
_cell_angle_gamma  60.0000000000
_symmetry_space_group_name_H-M  'P1'
_symmetry_Int_Tables_Number  1
loop_
_symmetry_equiv_pos_site_id
_symmetry_equiv_pos_as_xyz
  1  x,y,z
loop_
 _atom_site_label
 _atom_site_occupancy
 _atom_site_fract_x
 _atom_site_fract_y
 _atom_site_fract_z
 _atom_site_thermal_displace_type
 _atom_site_B_iso_or_equiv
 _atom_site_type_symbol
B1 1.0000000000 0.5000000000 0.5000000000 0.5000000000  Biso 1.0 B
B2 1.0000000000 0.2500000000 0.2500000000 0.2500000000  Biso 1.0 B
Mg3 1.0000000000 0.8006955856 0.1993044144 0.1993044144  Biso 1.0 Mg
Mg4 1.0000000000 0.1993044144 0.8006955856 0.8006955856  Biso 1.0 Mg
Mg5 1.0000000000 0.8006955856 0.8006955856 0.1993044144  Biso 1.0 Mg
Mg6 1.0000000000 0.1993044144 0.1993044144 0.8006955856  Biso 1.0 Mg
Mg7 1.0000000000 0.1993044144 0.8006955856 0.1993044144  Biso 1.0 Mg
Mg8 1.0000000000 0.8006955856 0.1993044144 0.8006955856  Biso 1.0 Mg
Mg9 1.0000000000 0.5506955856 0.5506955856 0.9493044144  Biso 1.0 Mg
Mg10 1.0000000000 0.9493044144 0.9493044144 0.5506955856  Biso 1.0 Mg
Mg11 1.0000000000 0.5506955856 0.9493044144 0.9493044144  Biso 1.0 Mg
Mg12 1.0000000000 0.9493044144 0.5506955856 0.5506955856  Biso 1.0 Mg
Mg13 1.0000000000 0.5506955856 0.9493044144 0.5506955856  Biso 1.0 Mg
Mg14 1.0000000000 0.9493044144 0.5506955856 0.9493044144  Biso 1.0 Mg
Mg15 1.0000000000 0.3750000000 0.3750000000 0.8750000000  Biso 1.0 Mg
Mg16 1.0000000000 0.8750000000 0.3750000000 0.3750000000  Biso 1.0 Mg
Mg17 1.0000000000 0.3750000000 0.3750000000 0.3750000000  Biso 1.0 Mg
Mg18 1.0000000000 0.3750000000 0.8750000000 0.3750000000  Biso 1.0 Mg
Rh19 1.0000000000 0.5955185964 0.5955185964 0.2134442107  Biso 1.0 Rh
Rh20 1.0000000000 0.2134442107 0.5955185964 0.5955185964  Biso 1.0 Rh
Rh21 1.0000000000 0.5955185964 0.5955185964 0.5955185964  Biso 1.0 Rh
Rh22 1.0000000000 0.5955185964 0.2134442107 0.5955185964  Biso 1.0 Rh
Rh23 1.0000000000 0.5365557893 0.1544814036 0.1544814036  Biso 1.0 Rh
Rh24 1.0000000000 0.1544814036 0.1544814036 0.5365557893  Biso 1.0 Rh
Rh25 1.0000000000 0.1544814036 0.1544814036 0.1544814036  Biso 1.0 Rh
Rh26 1.0000000000 0.1544814036 0.5365557893 0.1544814036  Biso 1.0 Rh
