# AFLOW.org Repositories
# B1Mo1   [BCT,BCT2,tI16] (STD_PRIM doi:10
data_B1Mo1
_pd_phase_name B1Mo1
_cell_length_a  8.8431323926
_cell_length_b  8.8431323926
_cell_length_c  8.8431323926
_cell_angle_alpha  159.5489234756
_cell_angle_beta  159.5489234756
_cell_angle_gamma  29.0800200654
_symmetry_space_group_name_H-M  'P1'
_symmetry_Int_Tables_Number  1
loop_
_symmetry_equiv_pos_site_id
_symmetry_equiv_pos_as_xyz
  1  x,y,z
loop_
 _atom_site_label
 _atom_site_occupancy
 _atom_site_fract_x
 _atom_site_fract_y
 _atom_site_fract_z
 _atom_site_thermal_displace_type
 _atom_site_B_iso_or_equiv
 _atom_site_type_symbol
B1 1.0000000000 0.3451900415 0.3451900415 0.0000000000  Biso 1.0 B
B2 1.0000000000 0.5951900415 0.0951900415 0.5000000000  Biso 1.0 B
B3 1.0000000000 0.9048099585 0.4048099585 0.5000000000  Biso 1.0 B
B4 1.0000000000 0.6548099585 0.6548099585 0.0000000000  Biso 1.0 B
Mo5 1.0000000000 0.1970195964 0.1970195964 0.0000000000  Biso 1.0 Mo
Mo6 1.0000000000 0.4470195964 0.9470195964 0.5000000000  Biso 1.0 Mo
Mo7 1.0000000000 0.0529804036 0.5529804036 0.5000000000  Biso 1.0 Mo
Mo8 1.0000000000 0.8029804036 0.8029804036 0.0000000000  Biso 1.0 Mo
