# AFLOW.org Repositories
# B1Nb1Ni1   [ORCC,ORCC,oS12] (STD_PRIM do
data_B1Nb1Ni1
_pd_phase_name B1Nb1Ni1
_cell_length_a  6.8556182606
_cell_length_b  6.8556182606
_cell_length_c  3.0815669602
_cell_angle_alpha  90.0000000000
_cell_angle_beta  90.0000000000
_cell_angle_gamma  152.1457184110
_symmetry_space_group_name_H-M  'P1'
_symmetry_Int_Tables_Number  1
loop_
_symmetry_equiv_pos_site_id
_symmetry_equiv_pos_as_xyz
  1  x,y,z
loop_
 _atom_site_label
 _atom_site_occupancy
 _atom_site_fract_x
 _atom_site_fract_y
 _atom_site_fract_z
 _atom_site_thermal_displace_type
 _atom_site_B_iso_or_equiv
 _atom_site_type_symbol
B1 1.0000000000 0.4659143385 0.5340856615 0.2500000000  Biso 1.0 B
B2 1.0000000000 0.5340856615 0.4659143385 0.7500000000  Biso 1.0 B
Nb3 1.0000000000 0.0994961059 0.9005038941 0.2500000000  Biso 1.0 Nb
Nb4 1.0000000000 0.9005038941 0.0994961059 0.7500000000  Biso 1.0 Nb
Ni5 1.0000000000 0.2953094820 0.7046905180 0.2500000000  Biso 1.0 Ni
Ni6 1.0000000000 0.7046905180 0.2953094820 0.7500000000  Biso 1.0 Ni
