# AFLOW.org Repositories
# B1Ni3   [ORC,ORC,oP16] (STD_PRIM doi:10.
data_B1Ni3
_pd_phase_name B1Ni3
_cell_length_a  4.3460928872
_cell_length_b  5.1342834001
_cell_length_c  6.5918028937
_cell_angle_alpha  90.0000000000
_cell_angle_beta  90.0000000000
_cell_angle_gamma  90.0000000000
_symmetry_space_group_name_H-M  'P1'
_symmetry_Int_Tables_Number  1
loop_
_symmetry_equiv_pos_site_id
_symmetry_equiv_pos_as_xyz
  1  x,y,z
loop_
 _atom_site_label
 _atom_site_occupancy
 _atom_site_fract_x
 _atom_site_fract_y
 _atom_site_fract_z
 _atom_site_thermal_displace_type
 _atom_site_B_iso_or_equiv
 _atom_site_type_symbol
B1 1.0000000000 0.5618726533 0.8832351691 0.7500000000  Biso 1.0 B
B2 1.0000000000 0.0618726533 0.6167648309 0.2500000000  Biso 1.0 B
B3 1.0000000000 0.4381273467 0.1167648309 0.2500000000  Biso 1.0 B
B4 1.0000000000 0.9381273467 0.3832351691 0.7500000000  Biso 1.0 B
Ni5 1.0000000000 0.6573660622 0.1794106083 0.9366156063  Biso 1.0 Ni
Ni6 1.0000000000 0.1573660622 0.3205893917 0.0633843937  Biso 1.0 Ni
Ni7 1.0000000000 0.3426339378 0.8205893917 0.4366156063  Biso 1.0 Ni
Ni8 1.0000000000 0.8426339378 0.6794106083 0.5633843937  Biso 1.0 Ni
Ni9 1.0000000000 0.3426339378 0.8205893917 0.0633843937  Biso 1.0 Ni
Ni10 1.0000000000 0.8426339378 0.6794106083 0.9366156063  Biso 1.0 Ni
Ni11 1.0000000000 0.6573660622 0.1794106083 0.5633843937  Biso 1.0 Ni
Ni12 1.0000000000 0.1573660622 0.3205893917 0.4366156063  Biso 1.0 Ni
Ni13 1.0000000000 0.1332704160 0.0291790369 0.7500000000  Biso 1.0 Ni
Ni14 1.0000000000 0.6332704160 0.4708209631 0.2500000000  Biso 1.0 Ni
Ni15 1.0000000000 0.8667295840 0.9708209631 0.2500000000  Biso 1.0 Ni
Ni16 1.0000000000 0.3667295840 0.5291790369 0.7500000000  Biso 1.0 Ni
