# AFLOW.org Repositories
# B1Ni4Tb1   [HEX,HEX,hP12] (STD_PRIM doi:
data_B1Ni4Tb1
_pd_phase_name B1Ni4Tb1
_cell_length_a  4.9605932355
_cell_length_b  4.9605932355
_cell_length_c  6.9260588353
_cell_angle_alpha  90.0000000000
_cell_angle_beta  90.0000000000
_cell_angle_gamma  120.0000000000
_symmetry_space_group_name_H-M  'P1'
_symmetry_Int_Tables_Number  1
loop_
_symmetry_equiv_pos_site_id
_symmetry_equiv_pos_as_xyz
  1  x,y,z
loop_
 _atom_site_label
 _atom_site_occupancy
 _atom_site_fract_x
 _atom_site_fract_y
 _atom_site_fract_z
 _atom_site_thermal_displace_type
 _atom_site_B_iso_or_equiv
 _atom_site_type_symbol
B1 1.0000000000 0.3333326596 0.6666673404 0.5000000000  Biso 1.0 B
B2 1.0000000000 0.6666673404 0.3333326596 0.5000000000  Biso 1.0 B
Ni3 1.0000000000 0.3333212898 0.6666787102 0.0000000000  Biso 1.0 Ni
Ni4 1.0000000000 0.6666787102 0.3333212898 0.0000000000  Biso 1.0 Ni
Ni5 1.0000000000 0.5000000000 0.0000000000 0.2955826000  Biso 1.0 Ni
Ni6 1.0000000000 0.0000000000 0.5000000000 0.2955826000  Biso 1.0 Ni
Ni7 1.0000000000 0.5000000000 0.5000000000 0.2955680111  Biso 1.0 Ni
Ni8 1.0000000000 0.0000000000 0.5000000000 0.7044174000  Biso 1.0 Ni
Ni9 1.0000000000 0.5000000000 0.0000000000 0.7044174000  Biso 1.0 Ni
Ni10 1.0000000000 0.5000000000 0.5000000000 0.7044319889  Biso 1.0 Ni
Tb11 1.0000000000 0.0000000000 0.0000000000 0.0000000000  Biso 1.0 Tb
Tb12 1.0000000000 0.0000000000 0.0000000000 0.5000000000  Biso 1.0 Tb
