# AFLOW.org Repositories
# B1O4Ta1   [BCT,BCT1,tI24] (STD_PRIM doi:
data_B1O4Ta1
_pd_phase_name B1O4Ta1
_cell_length_a  5.2495152089
_cell_length_b  5.2495152089
_cell_length_c  5.2495152089
_cell_angle_alpha  106.1671621945
_cell_angle_beta  106.1671621945
_cell_angle_gamma  116.3030314088
_symmetry_space_group_name_H-M  'P1'
_symmetry_Int_Tables_Number  1
loop_
_symmetry_equiv_pos_site_id
_symmetry_equiv_pos_as_xyz
  1  x,y,z
loop_
 _atom_site_label
 _atom_site_occupancy
 _atom_site_fract_x
 _atom_site_fract_y
 _atom_site_fract_z
 _atom_site_thermal_displace_type
 _atom_site_B_iso_or_equiv
 _atom_site_type_symbol
B1 1.0000000000 0.5000000000 0.5000000000 0.0000000000  Biso 1.0 B
B2 1.0000000000 0.7500000000 0.2500000000 0.5000000000  Biso 1.0 B
O3 1.0000000000 0.4979150974 0.6753769704 0.8225381270  Biso 1.0 O
O4 1.0000000000 0.8528388433 0.6753769704 0.1774618730  Biso 1.0 O
O5 1.0000000000 0.9253769704 0.2479150974 0.3225381270  Biso 1.0 O
O6 1.0000000000 0.9253769704 0.6028388433 0.6774618730  Biso 1.0 O
O7 1.0000000000 0.3971611567 0.0746230296 0.3225381270  Biso 1.0 O
O8 1.0000000000 0.7520849026 0.0746230296 0.6774618730  Biso 1.0 O
O9 1.0000000000 0.3246230296 0.5020849026 0.1774618730  Biso 1.0 O
O10 1.0000000000 0.3246230296 0.1471611567 0.8225381270  Biso 1.0 O
Ta11 1.0000000000 0.0000000000 0.0000000000 0.0000000000  Biso 1.0 Ta
Ta12 1.0000000000 0.2500000000 0.7500000000 0.5000000000  Biso 1.0 Ta
