# AFLOW.org Repositories
# B1Pd2   [ORC,ORC,oP6] (STD_PRIM doi:10.1
data_B1Pd2
_pd_phase_name B1Pd2
_cell_length_a  3.1310937339
_cell_length_b  4.7516712403
_cell_length_c  5.1741657690
_cell_angle_alpha  90.0000000000
_cell_angle_beta  90.0000000000
_cell_angle_gamma  90.0000000000
_symmetry_space_group_name_H-M  'P1'
_symmetry_Int_Tables_Number  1
loop_
_symmetry_equiv_pos_site_id
_symmetry_equiv_pos_as_xyz
  1  x,y,z
loop_
 _atom_site_label
 _atom_site_occupancy
 _atom_site_fract_x
 _atom_site_fract_y
 _atom_site_fract_z
 _atom_site_thermal_displace_type
 _atom_site_B_iso_or_equiv
 _atom_site_type_symbol
B1 1.0000000000 0.0000000000 0.0000000000 0.0000000000  Biso 1.0 B
B2 1.0000000000 0.5000000000 0.5000000000 0.5000000000  Biso 1.0 B
Pd3 1.0000000000 0.0000000000 0.2546384286 0.6562749027  Biso 1.0 Pd
Pd4 1.0000000000 0.0000000000 0.7453615714 0.3437250973  Biso 1.0 Pd
Pd5 1.0000000000 0.5000000000 0.2453615714 0.1562749027  Biso 1.0 Pd
Pd6 1.0000000000 0.5000000000 0.7546384286 0.8437250973  Biso 1.0 Pd
