# AFLOW.org Repositories
# B1V1   [ORCC,ORCC,oS8] (STD_PRIM doi:10.
data_B1V1
_pd_phase_name B1V1
_cell_length_a  4.3323836281
_cell_length_b  4.3323836281
_cell_length_c  2.9875812503
_cell_angle_alpha  90.0000000000
_cell_angle_beta  90.0000000000
_cell_angle_gamma  138.3917260187
_symmetry_space_group_name_H-M  'P1'
_symmetry_Int_Tables_Number  1
loop_
_symmetry_equiv_pos_site_id
_symmetry_equiv_pos_as_xyz
  1  x,y,z
loop_
 _atom_site_label
 _atom_site_occupancy
 _atom_site_fract_x
 _atom_site_fract_y
 _atom_site_fract_z
 _atom_site_thermal_displace_type
 _atom_site_B_iso_or_equiv
 _atom_site_type_symbol
B1 1.0000000000 0.4384000414 0.5615999586 0.7500000000  Biso 1.0 B
B2 1.0000000000 0.5615999586 0.4384000414 0.2500000000  Biso 1.0 B
V3 1.0000000000 0.1479296844 0.8520703156 0.7500000000  Biso 1.0 V
V4 1.0000000000 0.8520703156 0.1479296844 0.2500000000  Biso 1.0 V
