# AFLOW.org Repositories
# B2Be1C2   [ORC,ORC,oP20] (STD_PRIM doi:1
data_B2Be1C2
_pd_phase_name B2Be1C2
_cell_length_a  4.7001668146
_cell_length_b  5.4320378655
_cell_length_c  6.1346126521
_cell_angle_alpha  90.0000000000
_cell_angle_beta  90.0000000000
_cell_angle_gamma  90.0000000000
_symmetry_space_group_name_H-M  'P1'
_symmetry_Int_Tables_Number  1
loop_
_symmetry_equiv_pos_site_id
_symmetry_equiv_pos_as_xyz
  1  x,y,z
loop_
 _atom_site_label
 _atom_site_occupancy
 _atom_site_fract_x
 _atom_site_fract_y
 _atom_site_fract_z
 _atom_site_thermal_displace_type
 _atom_site_B_iso_or_equiv
 _atom_site_type_symbol
B1 1.0000000000 0.0081037425 0.9983969406 0.2500000000  Biso 1.0 B
B2 1.0000000000 0.0081037425 0.5016030594 0.2500000000  Biso 1.0 B
B3 1.0000000000 0.9918962575 0.4983969406 0.7500000000  Biso 1.0 B
B4 1.0000000000 0.9918962575 0.0016030594 0.7500000000  Biso 1.0 B
B5 1.0000000000 0.4991206189 0.7500000000 0.2500000000  Biso 1.0 B
B6 1.0000000000 0.5008793811 0.2500000000 0.7500000000  Biso 1.0 B
B7 1.0000000000 0.5213427846 0.2500000000 0.2500000000  Biso 1.0 B
B8 1.0000000000 0.4786572154 0.7500000000 0.7500000000  Biso 1.0 B
Be9 1.0000000000 0.8160741948 0.7500000000 0.9534194504  Biso 1.0 Be
Be10 1.0000000000 0.8160741948 0.7500000000 0.5465805496  Biso 1.0 Be
Be11 1.0000000000 0.1839258052 0.2500000000 0.0465805496  Biso 1.0 Be
Be12 1.0000000000 0.1839258052 0.2500000000 0.4534194504  Biso 1.0 Be
C13 1.0000000000 0.3397307300 0.0068483538 0.2500000000  Biso 1.0 C
C14 1.0000000000 0.3397307300 0.4931516462 0.2500000000  Biso 1.0 C
C15 1.0000000000 0.6602692700 0.5068483538 0.7500000000  Biso 1.0 C
C16 1.0000000000 0.6602692700 0.9931516462 0.7500000000  Biso 1.0 C
C17 1.0000000000 0.8339454922 0.7500000000 0.2500000000  Biso 1.0 C
C18 1.0000000000 0.1660545078 0.2500000000 0.7500000000  Biso 1.0 C
C19 1.0000000000 0.8555739632 0.2500000000 0.2500000000  Biso 1.0 C
C20 1.0000000000 0.1444260368 0.7500000000 0.7500000000  Biso 1.0 C
