# AFLOW.org Repositories
# B2C1Sc1   [TET,TET,tP32] (STD_PRIM doi:1
data_B2C1Sc1
_pd_phase_name B2C1Sc1
_cell_length_a  6.6726488591
_cell_length_b  6.6726488591
_cell_length_c  6.9432351825
_cell_angle_alpha  90.0000000000
_cell_angle_beta  90.0000000000
_cell_angle_gamma  90.0000000000
_symmetry_space_group_name_H-M  'P1'
_symmetry_Int_Tables_Number  1
loop_
_symmetry_equiv_pos_site_id
_symmetry_equiv_pos_as_xyz
  1  x,y,z
loop_
 _atom_site_label
 _atom_site_occupancy
 _atom_site_fract_x
 _atom_site_fract_y
 _atom_site_fract_z
 _atom_site_thermal_displace_type
 _atom_site_B_iso_or_equiv
 _atom_site_type_symbol
B1 1.0000000000 0.0960148398 0.5921967359 0.0000000000  Biso 1.0 B
B2 1.0000000000 0.9039851602 0.4078032641 0.0000000000  Biso 1.0 B
B3 1.0000000000 0.4078032641 0.0960148398 0.5000000000  Biso 1.0 B
B4 1.0000000000 0.5921967359 0.9039851602 0.5000000000  Biso 1.0 B
B5 1.0000000000 0.4039851602 0.0921967359 0.0000000000  Biso 1.0 B
B6 1.0000000000 0.5960148398 0.9078032641 0.0000000000  Biso 1.0 B
B7 1.0000000000 0.0921967359 0.5960148398 0.5000000000  Biso 1.0 B
B8 1.0000000000 0.9078032641 0.4039851602 0.5000000000  Biso 1.0 B
B9 1.0000000000 0.1536717782 0.0334377232 0.0000000000  Biso 1.0 B
B10 1.0000000000 0.8463282218 0.9665622768 0.0000000000  Biso 1.0 B
B11 1.0000000000 0.9665622768 0.1536717782 0.5000000000  Biso 1.0 B
B12 1.0000000000 0.0334377232 0.8463282218 0.5000000000  Biso 1.0 B
B13 1.0000000000 0.3463282218 0.5334377232 0.0000000000  Biso 1.0 B
B14 1.0000000000 0.6536717782 0.4665622768 0.0000000000  Biso 1.0 B
B15 1.0000000000 0.5334377232 0.6536717782 0.5000000000  Biso 1.0 B
B16 1.0000000000 0.4665622768 0.3463282218 0.5000000000  Biso 1.0 B
C17 1.0000000000 0.4601798300 0.3216038583 0.0000000000  Biso 1.0 C
C18 1.0000000000 0.5398201700 0.6783961417 0.0000000000  Biso 1.0 C
C19 1.0000000000 0.6783961417 0.4601798300 0.5000000000  Biso 1.0 C
C20 1.0000000000 0.3216038583 0.5398201700 0.5000000000  Biso 1.0 C
C21 1.0000000000 0.0398201700 0.8216038583 0.0000000000  Biso 1.0 C
C22 1.0000000000 0.9601798300 0.1783961417 0.0000000000  Biso 1.0 C
C23 1.0000000000 0.8216038583 0.9601798300 0.5000000000  Biso 1.0 C
C24 1.0000000000 0.1783961417 0.0398201700 0.5000000000  Biso 1.0 C
Sc25 1.0000000000 0.3081459292 0.8081459292 0.2500000000  Biso 1.0 Sc
Sc26 1.0000000000 0.6918540708 0.1918540708 0.2500000000  Biso 1.0 Sc
Sc27 1.0000000000 0.1918540708 0.3081459292 0.7500000000  Biso 1.0 Sc
Sc28 1.0000000000 0.8081459292 0.6918540708 0.7500000000  Biso 1.0 Sc
Sc29 1.0000000000 0.6918540708 0.1918540708 0.7500000000  Biso 1.0 Sc
Sc30 1.0000000000 0.3081459292 0.8081459292 0.7500000000  Biso 1.0 Sc
Sc31 1.0000000000 0.8081459292 0.6918540708 0.2500000000  Biso 1.0 Sc
Sc32 1.0000000000 0.1918540708 0.3081459292 0.2500000000  Biso 1.0 Sc
