# AFLOW.org Repositories
# B2C1U1   [ORC,ORC,oP8] (STD_PRIM doi:10.
data_B2C1U1
_pd_phase_name B2C1U1
_cell_length_a  3.6776377188
_cell_length_b  4.1509351933
_cell_length_c  6.0687198409
_cell_angle_alpha  90.0000000000
_cell_angle_beta  90.0000000000
_cell_angle_gamma  90.0000000000
_symmetry_space_group_name_H-M  'P1'
_symmetry_Int_Tables_Number  1
loop_
_symmetry_equiv_pos_site_id
_symmetry_equiv_pos_as_xyz
  1  x,y,z
loop_
 _atom_site_label
 _atom_site_occupancy
 _atom_site_fract_x
 _atom_site_fract_y
 _atom_site_fract_z
 _atom_site_thermal_displace_type
 _atom_site_B_iso_or_equiv
 _atom_site_type_symbol
B1 1.0000000000 0.5000000000 0.8370299092 0.9042172421  Biso 1.0 B
B2 1.0000000000 0.5000000000 0.8370299092 0.5957827579  Biso 1.0 B
B3 1.0000000000 0.5000000000 0.1629700908 0.0957827579  Biso 1.0 B
B4 1.0000000000 0.5000000000 0.1629700908 0.4042172421  Biso 1.0 B
C5 1.0000000000 0.5000000000 0.5000000000 0.0000000000  Biso 1.0 C
C6 1.0000000000 0.5000000000 0.5000000000 0.5000000000  Biso 1.0 C
U7 1.0000000000 0.0000000000 0.7078176373 0.2500000000  Biso 1.0 U
U8 1.0000000000 0.0000000000 0.2921823627 0.7500000000  Biso 1.0 U
