# AFLOW.org Repositories
# B2C2Sc1   [ORC,ORC,oP20] (STD_PRIM doi:1
data_B2C2Sc1
_pd_phase_name B2C2Sc1
_cell_length_a  3.5204749338
_cell_length_b  5.3013912142
_cell_length_c  10.2298493488
_cell_angle_alpha  90.0000000000
_cell_angle_beta  90.0000000000
_cell_angle_gamma  90.0000000000
_symmetry_space_group_name_H-M  'P1'
_symmetry_Int_Tables_Number  1
loop_
_symmetry_equiv_pos_site_id
_symmetry_equiv_pos_as_xyz
  1  x,y,z
loop_
 _atom_site_label
 _atom_site_occupancy
 _atom_site_fract_x
 _atom_site_fract_y
 _atom_site_fract_z
 _atom_site_thermal_displace_type
 _atom_site_B_iso_or_equiv
 _atom_site_type_symbol
B1 1.0000000000 0.5000000000 0.3557896540 0.5354273776  Biso 1.0 B
B2 1.0000000000 0.5000000000 0.6442103460 0.4645726224  Biso 1.0 B
B3 1.0000000000 0.5000000000 0.1442103460 0.0354273776  Biso 1.0 B
B4 1.0000000000 0.5000000000 0.8557896540 0.9645726224  Biso 1.0 B
B5 1.0000000000 0.5000000000 0.4863520678 0.8111925264  Biso 1.0 B
B6 1.0000000000 0.5000000000 0.5136479322 0.1888074736  Biso 1.0 B
B7 1.0000000000 0.5000000000 0.0136479322 0.3111925264  Biso 1.0 B
B8 1.0000000000 0.5000000000 0.9863520678 0.6888074736  Biso 1.0 B
C9 1.0000000000 0.5000000000 0.3928577265 0.9554479928  Biso 1.0 C
C10 1.0000000000 0.5000000000 0.6071422735 0.0445520072  Biso 1.0 C
C11 1.0000000000 0.5000000000 0.1071422735 0.4554479928  Biso 1.0 C
C12 1.0000000000 0.5000000000 0.8928577265 0.5445520072  Biso 1.0 C
C13 1.0000000000 0.5000000000 0.2960234933 0.6905814915  Biso 1.0 C
C14 1.0000000000 0.5000000000 0.7039765067 0.3094185085  Biso 1.0 C
C15 1.0000000000 0.5000000000 0.2039765067 0.1905814915  Biso 1.0 C
C16 1.0000000000 0.5000000000 0.7960234933 0.8094185085  Biso 1.0 C
Sc17 1.0000000000 0.0000000000 0.1379099691 0.8521153031  Biso 1.0 Sc
Sc18 1.0000000000 0.0000000000 0.8620900309 0.1478846969  Biso 1.0 Sc
Sc19 1.0000000000 0.0000000000 0.3620900309 0.3521153031  Biso 1.0 Sc
Sc20 1.0000000000 0.0000000000 0.6379099691 0.6478846969  Biso 1.0 Sc
