# AFLOW.org Repositories
# B2C2Tb1   [TET,TET,tP10] (STD_PRIM doi:1
data_B2C2Tb1
_pd_phase_name B2C2Tb1
_cell_length_a  3.7989707463
_cell_length_b  3.7989707463
_cell_length_c  7.2644159289
_cell_angle_alpha  90.0000000000
_cell_angle_beta  90.0000000000
_cell_angle_gamma  90.0000000000
_symmetry_space_group_name_H-M  'P1'
_symmetry_Int_Tables_Number  1
loop_
_symmetry_equiv_pos_site_id
_symmetry_equiv_pos_as_xyz
  1  x,y,z
loop_
 _atom_site_label
 _atom_site_occupancy
 _atom_site_fract_x
 _atom_site_fract_y
 _atom_site_fract_z
 _atom_site_thermal_displace_type
 _atom_site_B_iso_or_equiv
 _atom_site_type_symbol
B1 1.0000000000 0.5000000000 0.2154609804 0.5000000000  Biso 1.0 B
B2 1.0000000000 0.5000000000 0.7845390196 0.5000000000  Biso 1.0 B
B3 1.0000000000 0.7845390196 0.5000000000 0.0000000000  Biso 1.0 B
B4 1.0000000000 0.2154609804 0.5000000000 0.0000000000  Biso 1.0 B
C5 1.0000000000 0.1874565587 0.5000000000 0.5000000000  Biso 1.0 C
C6 1.0000000000 0.8125434413 0.5000000000 0.5000000000  Biso 1.0 C
C7 1.0000000000 0.5000000000 0.1874565587 0.0000000000  Biso 1.0 C
C8 1.0000000000 0.5000000000 0.8125434413 0.0000000000  Biso 1.0 C
Tb9 1.0000000000 0.0000000000 0.0000000000 0.2500000000  Biso 1.0 Tb
Tb10 1.0000000000 0.0000000000 0.0000000000 0.7500000000  Biso 1.0 Tb
