# AFLOW.org Repositories
# B2Hf3Ir5   [TET,TET,tP20] (STD_PRIM doi:
data_B2Hf3Ir5
_pd_phase_name B2Hf3Ir5
_cell_length_a  9.2520200675
_cell_length_b  9.2520200675
_cell_length_c  3.3582870332
_cell_angle_alpha  90.0000000000
_cell_angle_beta  90.0000000000
_cell_angle_gamma  90.0000000000
_symmetry_space_group_name_H-M  'P1'
_symmetry_Int_Tables_Number  1
loop_
_symmetry_equiv_pos_site_id
_symmetry_equiv_pos_as_xyz
  1  x,y,z
loop_
 _atom_site_label
 _atom_site_occupancy
 _atom_site_fract_x
 _atom_site_fract_y
 _atom_site_fract_z
 _atom_site_thermal_displace_type
 _atom_site_B_iso_or_equiv
 _atom_site_type_symbol
B1 1.0000000000 0.1191104548 0.6191104548 0.0000000000  Biso 1.0 B
B2 1.0000000000 0.8808895452 0.3808895452 0.0000000000  Biso 1.0 B
B3 1.0000000000 0.3808895452 0.1191104548 0.0000000000  Biso 1.0 B
B4 1.0000000000 0.6191104548 0.8808895452 0.0000000000  Biso 1.0 B
Hf5 1.0000000000 0.0000000000 0.0000000000 0.0000000000  Biso 1.0 Hf
Hf6 1.0000000000 0.5000000000 0.5000000000 0.0000000000  Biso 1.0 Hf
Hf7 1.0000000000 0.3242519141 0.8242519141 0.0000000000  Biso 1.0 Hf
Hf8 1.0000000000 0.6757480859 0.1757480859 0.0000000000  Biso 1.0 Hf
Hf9 1.0000000000 0.1757480859 0.3242519141 0.0000000000  Biso 1.0 Hf
Hf10 1.0000000000 0.8242519141 0.6757480859 0.0000000000  Biso 1.0 Hf
Ir11 1.0000000000 0.0000000000 0.5000000000 0.5000000000  Biso 1.0 Ir
Ir12 1.0000000000 0.5000000000 0.0000000000 0.5000000000  Biso 1.0 Ir
Ir13 1.0000000000 0.2203877427 0.0724916639 0.5000000000  Biso 1.0 Ir
Ir14 1.0000000000 0.7796122573 0.9275083361 0.5000000000  Biso 1.0 Ir
Ir15 1.0000000000 0.9275083361 0.2203877427 0.5000000000  Biso 1.0 Ir
Ir16 1.0000000000 0.0724916639 0.7796122573 0.5000000000  Biso 1.0 Ir
Ir17 1.0000000000 0.2796122573 0.5724916639 0.5000000000  Biso 1.0 Ir
Ir18 1.0000000000 0.7203877427 0.4275083361 0.5000000000  Biso 1.0 Ir
Ir19 1.0000000000 0.5724916639 0.7203877427 0.5000000000  Biso 1.0 Ir
Ir20 1.0000000000 0.4275083361 0.2796122573 0.5000000000  Biso 1.0 Ir
