# AFLOW.org Repositories
# B2Ho1Os1   [ORC,ORC,oP16] (STD_PRIM doi:
data_B2Ho1Os1
_pd_phase_name B2Ho1Os1
_cell_length_a  5.3039694787
_cell_length_b  5.8846155005
_cell_length_c  6.3547903113
_cell_angle_alpha  90.0000000000
_cell_angle_beta  90.0000000000
_cell_angle_gamma  90.0000000000
_symmetry_space_group_name_H-M  'P1'
_symmetry_Int_Tables_Number  1
loop_
_symmetry_equiv_pos_site_id
_symmetry_equiv_pos_as_xyz
  1  x,y,z
loop_
 _atom_site_label
 _atom_site_occupancy
 _atom_site_fract_x
 _atom_site_fract_y
 _atom_site_fract_z
 _atom_site_thermal_displace_type
 _atom_site_B_iso_or_equiv
 _atom_site_type_symbol
B1 1.0000000000 0.0824745915 0.3630486072 0.5389496652  Biso 1.0 B
B2 1.0000000000 0.9175254085 0.1369513928 0.0389496652  Biso 1.0 B
B3 1.0000000000 0.5824745915 0.6369513928 0.4610503348  Biso 1.0 B
B4 1.0000000000 0.4175254085 0.8630486072 0.9610503348  Biso 1.0 B
B5 1.0000000000 0.9175254085 0.6369513928 0.4610503348  Biso 1.0 B
B6 1.0000000000 0.0824745915 0.8630486072 0.9610503348  Biso 1.0 B
B7 1.0000000000 0.4175254085 0.3630486072 0.5389496652  Biso 1.0 B
B8 1.0000000000 0.5824745915 0.1369513928 0.0389496652  Biso 1.0 B
Ho9 1.0000000000 0.2500000000 0.0101701003 0.3349791985  Biso 1.0 Ho
Ho10 1.0000000000 0.7500000000 0.4898298997 0.8349791985  Biso 1.0 Ho
Ho11 1.0000000000 0.7500000000 0.9898298997 0.6650208015  Biso 1.0 Ho
Ho12 1.0000000000 0.2500000000 0.5101701003 0.1650208015  Biso 1.0 Ho
Os13 1.0000000000 0.2500000000 0.1772305560 0.8183915233  Biso 1.0 Os
Os14 1.0000000000 0.7500000000 0.3227694440 0.3183915233  Biso 1.0 Os
Os15 1.0000000000 0.7500000000 0.8227694440 0.1816084767  Biso 1.0 Os
Os16 1.0000000000 0.2500000000 0.6772305560 0.6816084767  Biso 1.0 Os
