# AFLOW.org Repositories
# B2Ir1Mo2   [ORC,ORC,oP20] (STD_PRIM doi:
data_B2Ir1Mo2
_pd_phase_name B2Ir1Mo2
_cell_length_a  3.2583266264
_cell_length_b  7.4030342321
_cell_length_c  9.4409908419
_cell_angle_alpha  90.0000000000
_cell_angle_beta  90.0000000000
_cell_angle_gamma  90.0000000000
_symmetry_space_group_name_H-M  'P1'
_symmetry_Int_Tables_Number  1
loop_
_symmetry_equiv_pos_site_id
_symmetry_equiv_pos_as_xyz
  1  x,y,z
loop_
 _atom_site_label
 _atom_site_occupancy
 _atom_site_fract_x
 _atom_site_fract_y
 _atom_site_fract_z
 _atom_site_thermal_displace_type
 _atom_site_B_iso_or_equiv
 _atom_site_type_symbol
B1 1.0000000000 0.0000000000 0.3827682165 0.0404334879  Biso 1.0 B
B2 1.0000000000 0.0000000000 0.6172317835 0.9595665121  Biso 1.0 B
B3 1.0000000000 0.5000000000 0.8827682165 0.4595665121  Biso 1.0 B
B4 1.0000000000 0.5000000000 0.1172317835 0.5404334879  Biso 1.0 B
B5 1.0000000000 0.0000000000 0.3751208140 0.2384104096  Biso 1.0 B
B6 1.0000000000 0.0000000000 0.6248791860 0.7615895904  Biso 1.0 B
B7 1.0000000000 0.5000000000 0.8751208140 0.2615895904  Biso 1.0 B
B8 1.0000000000 0.5000000000 0.1248791860 0.7384104096  Biso 1.0 B
Ir9 1.0000000000 0.0000000000 0.8783993689 0.1115050263  Biso 1.0 Ir
Ir10 1.0000000000 0.0000000000 0.1216006311 0.8884949737  Biso 1.0 Ir
Ir11 1.0000000000 0.5000000000 0.3783993689 0.3884949737  Biso 1.0 Ir
Ir12 1.0000000000 0.5000000000 0.6216006311 0.6115050263  Biso 1.0 Ir
Mo13 1.0000000000 0.0000000000 0.6872292036 0.3691932000  Biso 1.0 Mo
Mo14 1.0000000000 0.0000000000 0.3127707964 0.6308068000  Biso 1.0 Mo
Mo15 1.0000000000 0.5000000000 0.1872292036 0.1308068000  Biso 1.0 Mo
Mo16 1.0000000000 0.5000000000 0.8127707964 0.8691932000  Biso 1.0 Mo
Mo17 1.0000000000 0.0000000000 0.9278871465 0.6384340978  Biso 1.0 Mo
Mo18 1.0000000000 0.0000000000 0.0721128535 0.3615659022  Biso 1.0 Mo
Mo19 1.0000000000 0.5000000000 0.4278871465 0.8615659022  Biso 1.0 Mo
Mo20 1.0000000000 0.5000000000 0.5721128535 0.1384340978  Biso 1.0 Mo
