# AFLOW.org Repositories
# B2Li2Rh3   [ORC,ORC,oP14] (STD_PRIM doi:
data_B2Li2Rh3
_pd_phase_name B2Li2Rh3
_cell_length_a  2.8371895887
_cell_length_b  5.7829858081
_cell_length_c  9.5021975982
_cell_angle_alpha  90.0000000000
_cell_angle_beta  90.0000000000
_cell_angle_gamma  90.0000000000
_symmetry_space_group_name_H-M  'P1'
_symmetry_Int_Tables_Number  1
loop_
_symmetry_equiv_pos_site_id
_symmetry_equiv_pos_as_xyz
  1  x,y,z
loop_
 _atom_site_label
 _atom_site_occupancy
 _atom_site_fract_x
 _atom_site_fract_y
 _atom_site_fract_z
 _atom_site_thermal_displace_type
 _atom_site_B_iso_or_equiv
 _atom_site_type_symbol
B1 1.0000000000 0.5000000000 0.0642178464 0.8314002104  Biso 1.0 B
B2 1.0000000000 0.5000000000 0.9357821536 0.1685997896  Biso 1.0 B
B3 1.0000000000 0.5000000000 0.4357821536 0.3314002104  Biso 1.0 B
B4 1.0000000000 0.5000000000 0.5642178464 0.6685997896  Biso 1.0 B
Li5 1.0000000000 0.5000000000 0.1615676671 0.5749186641  Biso 1.0 Li
Li6 1.0000000000 0.5000000000 0.8384323329 0.4250813359  Biso 1.0 Li
Li7 1.0000000000 0.5000000000 0.3384323329 0.0749186641  Biso 1.0 Li
Li8 1.0000000000 0.5000000000 0.6615676671 0.9250813359  Biso 1.0 Li
Rh9 1.0000000000 0.0000000000 0.3342581159 0.7786406245  Biso 1.0 Rh
Rh10 1.0000000000 0.0000000000 0.6657418841 0.2213593755  Biso 1.0 Rh
Rh11 1.0000000000 0.0000000000 0.1657418841 0.2786406245  Biso 1.0 Rh
Rh12 1.0000000000 0.0000000000 0.8342581159 0.7213593755  Biso 1.0 Rh
Rh13 1.0000000000 0.0000000000 0.0000000000 0.0000000000  Biso 1.0 Rh
Rh14 1.0000000000 0.0000000000 0.5000000000 0.5000000000  Biso 1.0 Rh
