# AFLOW.org Repositories
# B2Nb1Ni1   [ORC,ORC,oP16] (STD_PRIM doi:
data_B2Nb1Ni1
_pd_phase_name B2Nb1Ni1
_cell_length_a  3.1258527605
_cell_length_b  6.0377506228
_cell_length_c  8.1922385382
_cell_angle_alpha  90.0000000000
_cell_angle_beta  90.0000000000
_cell_angle_gamma  90.0000000000
_symmetry_space_group_name_H-M  'P1'
_symmetry_Int_Tables_Number  1
loop_
_symmetry_equiv_pos_site_id
_symmetry_equiv_pos_as_xyz
  1  x,y,z
loop_
 _atom_site_label
 _atom_site_occupancy
 _atom_site_fract_x
 _atom_site_fract_y
 _atom_site_fract_z
 _atom_site_thermal_displace_type
 _atom_site_B_iso_or_equiv
 _atom_site_type_symbol
B1 1.0000000000 0.2500000000 0.2409976960 0.5767667892  Biso 1.0 B
B2 1.0000000000 0.7500000000 0.2590023040 0.0767667892  Biso 1.0 B
B3 1.0000000000 0.7500000000 0.7590023040 0.4232332108  Biso 1.0 B
B4 1.0000000000 0.2500000000 0.7409976960 0.9232332108  Biso 1.0 B
B5 1.0000000000 0.2500000000 0.1734413222 0.1676784965  Biso 1.0 B
B6 1.0000000000 0.7500000000 0.3265586778 0.6676784965  Biso 1.0 B
B7 1.0000000000 0.7500000000 0.8265586778 0.8323215035  Biso 1.0 B
B8 1.0000000000 0.2500000000 0.6734413222 0.3323215035  Biso 1.0 B
Nb9 1.0000000000 0.2500000000 0.1330260848 0.8671200902  Biso 1.0 Nb
Nb10 1.0000000000 0.7500000000 0.3669739152 0.3671200902  Biso 1.0 Nb
Nb11 1.0000000000 0.7500000000 0.8669739152 0.1328799098  Biso 1.0 Nb
Nb12 1.0000000000 0.2500000000 0.6330260848 0.6328799098  Biso 1.0 Nb
Ni13 1.0000000000 0.2500000000 0.0000000000 0.3847473736  Biso 1.0 Ni
Ni14 1.0000000000 0.7500000000 0.4999591310 0.8847473736  Biso 1.0 Ni
Ni15 1.0000000000 0.7500000000 0.0000000000 0.6152526264  Biso 1.0 Ni
Ni16 1.0000000000 0.2500000000 0.5000408690 0.1152526264  Biso 1.0 Ni
