# AFLOW.org Repositories
# B2Re1   [HEX,HEX,hP6] (STD_PRIM doi:10.1
data_B2Re1
_pd_phase_name B2Re1
_cell_length_a  2.9200658800
_cell_length_b  2.9200658800
_cell_length_c  7.5096052319
_cell_angle_alpha  90.0000000000
_cell_angle_beta  90.0000000000
_cell_angle_gamma  120.0000000000
_symmetry_space_group_name_H-M  'P1'
_symmetry_Int_Tables_Number  1
loop_
_symmetry_equiv_pos_site_id
_symmetry_equiv_pos_as_xyz
  1  x,y,z
loop_
 _atom_site_label
 _atom_site_occupancy
 _atom_site_fract_x
 _atom_site_fract_y
 _atom_site_fract_z
 _atom_site_thermal_displace_type
 _atom_site_B_iso_or_equiv
 _atom_site_type_symbol
B1 1.0000000000 0.6666512811 0.3333256405 0.0477898148  Biso 1.0 B
B2 1.0000000000 0.3333487189 0.6666743595 0.5477898148  Biso 1.0 B
B3 1.0000000000 0.3333487189 0.6666743595 0.9522101852  Biso 1.0 B
B4 1.0000000000 0.6666512811 0.3333256405 0.4522101852  Biso 1.0 B
Re5 1.0000000000 0.3333441410 0.6666720705 0.2500000000  Biso 1.0 Re
Re6 1.0000000000 0.6666558590 0.3333279295 0.7500000000  Biso 1.0 Re
