# AFLOW.org Repositories
# B2Ru1   [ORC,ORC,oP6] (STD_PRIM doi:10.1
data_B2Ru1
_pd_phase_name B2Ru1
_cell_length_a  2.8689755071
_cell_length_b  4.0591839520
_cell_length_c  4.6508288505
_cell_angle_alpha  90.0000000000
_cell_angle_beta  90.0000000000
_cell_angle_gamma  90.0000000000
_symmetry_space_group_name_H-M  'P1'
_symmetry_Int_Tables_Number  1
loop_
_symmetry_equiv_pos_site_id
_symmetry_equiv_pos_as_xyz
  1  x,y,z
loop_
 _atom_site_label
 _atom_site_occupancy
 _atom_site_fract_x
 _atom_site_fract_y
 _atom_site_fract_z
 _atom_site_thermal_displace_type
 _atom_site_B_iso_or_equiv
 _atom_site_type_symbol
B1 1.0000000000 0.7500000000 0.3624772692 0.0540698046  Biso 1.0 B
B2 1.0000000000 0.7500000000 0.3624772692 0.4459301954  Biso 1.0 B
B3 1.0000000000 0.2500000000 0.6375227308 0.9459301954  Biso 1.0 B
B4 1.0000000000 0.2500000000 0.6375227308 0.5540698046  Biso 1.0 B
Ru5 1.0000000000 0.7500000000 0.8477418185 0.2500000000  Biso 1.0 Ru
Ru6 1.0000000000 0.2500000000 0.1522581815 0.7500000000  Biso 1.0 Ru
