# AFLOW.org Repositories
# B2Ru3Tb1   [HEX,HEX,hP6] (STD_PRIM doi:1
data_B2Ru3Tb1
_pd_phase_name B2Ru3Tb1
_cell_length_a  5.4943992910
_cell_length_b  5.4943992910
_cell_length_c  3.0466312899
_cell_angle_alpha  90.0000000000
_cell_angle_beta  90.0000000000
_cell_angle_gamma  120.0000000000
_symmetry_space_group_name_H-M  'P1'
_symmetry_Int_Tables_Number  1
loop_
_symmetry_equiv_pos_site_id
_symmetry_equiv_pos_as_xyz
  1  x,y,z
loop_
 _atom_site_label
 _atom_site_occupancy
 _atom_site_fract_x
 _atom_site_fract_y
 _atom_site_fract_z
 _atom_site_thermal_displace_type
 _atom_site_B_iso_or_equiv
 _atom_site_type_symbol
B1 1.0000000000 0.6666827302 0.3333654603 0.0000000000  Biso 1.0 B
B2 1.0000000000 0.3333172698 0.6666345397 0.0000000000  Biso 1.0 B
Ru3 1.0000000000 0.0000000000 0.5000000000 0.5000000000  Biso 1.0 Ru
Ru4 1.0000000000 0.5000000000 0.5000000000 0.5000000000  Biso 1.0 Ru
Ru5 1.0000000000 0.5000000000 0.0000000000 0.5000000000  Biso 1.0 Ru
Tb6 1.0000000000 0.0000000000 0.0000000000 0.0000000000  Biso 1.0 Tb
