# AFLOW.org Repositories
# B2Tc1   [HEX,HEX,hP6] (STD_PRIM doi:10.1
data_B2Tc1
_pd_phase_name B2Tc1
_cell_length_a  2.9044711674
_cell_length_b  2.9044711674
_cell_length_c  7.4755296587
_cell_angle_alpha  90.0000000000
_cell_angle_beta  90.0000000000
_cell_angle_gamma  120.0000000000
_symmetry_space_group_name_H-M  'P1'
_symmetry_Int_Tables_Number  1
loop_
_symmetry_equiv_pos_site_id
_symmetry_equiv_pos_as_xyz
  1  x,y,z
loop_
 _atom_site_label
 _atom_site_occupancy
 _atom_site_fract_x
 _atom_site_fract_y
 _atom_site_fract_z
 _atom_site_thermal_displace_type
 _atom_site_B_iso_or_equiv
 _atom_site_type_symbol
B1 1.0000000000 0.3333505807 0.6666752904 0.5479546417  Biso 1.0 B
B2 1.0000000000 0.6666494193 0.3333247096 0.0479546417  Biso 1.0 B
B3 1.0000000000 0.6666494193 0.3333247096 0.4520453583  Biso 1.0 B
B4 1.0000000000 0.3333505807 0.6666752904 0.9520453583  Biso 1.0 B
Tc5 1.0000000000 0.3333486893 0.6666743446 0.2500000000  Biso 1.0 Tc
Tc6 1.0000000000 0.6666513107 0.3333256554 0.7500000000  Biso 1.0 Tc
