# AFLOW.org Repositories
# B2W1   [HEX,HEX,hP12] (STD_PRIM doi:10.1
data_B2W1
_pd_phase_name B2W1
_cell_length_a  3.0270195244
_cell_length_b  3.0270195244
_cell_length_c  14.1447575873
_cell_angle_alpha  90.0000000000
_cell_angle_beta  90.0000000000
_cell_angle_gamma  120.0000000000
_symmetry_space_group_name_H-M  'P1'
_symmetry_Int_Tables_Number  1
loop_
_symmetry_equiv_pos_site_id
_symmetry_equiv_pos_as_xyz
  1  x,y,z
loop_
 _atom_site_label
 _atom_site_occupancy
 _atom_site_fract_x
 _atom_site_fract_y
 _atom_site_fract_z
 _atom_site_thermal_displace_type
 _atom_site_B_iso_or_equiv
 _atom_site_type_symbol
B1 1.0000000000 0.0000000000 0.0000000000 0.2500000000  Biso 1.0 B
B2 1.0000000000 0.0000000000 0.0000000000 0.7500000000  Biso 1.0 B
B3 1.0000000000 0.6666650586 0.3333349414 0.7500000000  Biso 1.0 B
B4 1.0000000000 0.3333349414 0.6666650586 0.2500000000  Biso 1.0 B
B5 1.0000000000 0.6666691450 0.3333308550 0.9773332154  Biso 1.0 B
B6 1.0000000000 0.3333308550 0.6666691450 0.4773332154  Biso 1.0 B
B7 1.0000000000 0.3333308550 0.6666691450 0.0226667846  Biso 1.0 B
B8 1.0000000000 0.6666691450 0.3333308550 0.5226667846  Biso 1.0 B
W9 1.0000000000 0.6666675305 0.3333324695 0.1349407667  Biso 1.0 W
W10 1.0000000000 0.3333324695 0.6666675305 0.6349407667  Biso 1.0 W
W11 1.0000000000 0.3333324695 0.6666675305 0.8650592333  Biso 1.0 W
W12 1.0000000000 0.6666675305 0.3333324695 0.3650592333  Biso 1.0 W
