# AFLOW.org Repositories
# B3C1Nb3   [ORCC,ORCC,oS28] (STD_PRIM doi
data_B3C1Nb3
_pd_phase_name B3C1Nb3
_cell_length_a  14.5179940244
_cell_length_b  14.5179940244
_cell_length_c  3.1437988371
_cell_angle_alpha  90.0000000000
_cell_angle_beta  90.0000000000
_cell_angle_gamma  167.0061585499
_symmetry_space_group_name_H-M  'P1'
_symmetry_Int_Tables_Number  1
loop_
_symmetry_equiv_pos_site_id
_symmetry_equiv_pos_as_xyz
  1  x,y,z
loop_
 _atom_site_label
 _atom_site_occupancy
 _atom_site_fract_x
 _atom_site_fract_y
 _atom_site_fract_z
 _atom_site_thermal_displace_type
 _atom_site_B_iso_or_equiv
 _atom_site_type_symbol
B1 1.0000000000 0.9210455270 0.0789544730 0.7500000000  Biso 1.0 B
B2 1.0000000000 0.0789544730 0.9210455270 0.2500000000  Biso 1.0 B
B3 1.0000000000 0.1122466159 0.8877533841 0.7500000000  Biso 1.0 B
B4 1.0000000000 0.8877533841 0.1122466159 0.2500000000  Biso 1.0 B
B5 1.0000000000 0.9844811258 0.0155188742 0.7500000000  Biso 1.0 B
B6 1.0000000000 0.0155188742 0.9844811258 0.2500000000  Biso 1.0 B
C7 1.0000000000 0.7121956247 0.2878043753 0.2500000000  Biso 1.0 C
C8 1.0000000000 0.2878043753 0.7121956247 0.7500000000  Biso 1.0 C
Nb9 1.0000000000 0.6380321975 0.3619678025 0.2500000000  Biso 1.0 Nb
Nb10 1.0000000000 0.3619678025 0.6380321975 0.7500000000  Biso 1.0 Nb
Nb11 1.0000000000 0.2125807950 0.7874192050 0.7500000000  Biso 1.0 Nb
Nb12 1.0000000000 0.7874192050 0.2125807950 0.2500000000  Biso 1.0 Nb
Nb13 1.0000000000 0.5467774024 0.4532225976 0.7500000000  Biso 1.0 Nb
Nb14 1.0000000000 0.4532225976 0.5467774024 0.2500000000  Biso 1.0 Nb
