# AFLOW.org Repositories
# B3Co1W3   [ORCC,ORCC,oS28] (STD_PRIM doi
data_B3Co1W3
_pd_phase_name B3Co1W3
_cell_length_a  4.5267869371
_cell_length_b  4.5267869371
_cell_length_c  10.7996697158
_cell_angle_alpha  90.0000000000
_cell_angle_beta  90.0000000000
_cell_angle_gamma  138.7793662437
_symmetry_space_group_name_H-M  'P1'
_symmetry_Int_Tables_Number  1
loop_
_symmetry_equiv_pos_site_id
_symmetry_equiv_pos_as_xyz
  1  x,y,z
loop_
 _atom_site_label
 _atom_site_occupancy
 _atom_site_fract_x
 _atom_site_fract_y
 _atom_site_fract_z
 _atom_site_thermal_displace_type
 _atom_site_B_iso_or_equiv
 _atom_site_type_symbol
B1 1.0000000000 0.9164874733 0.0835125267 0.1010225847  Biso 1.0 B
B2 1.0000000000 0.0835125267 0.9164874733 0.6010225847  Biso 1.0 B
B3 1.0000000000 0.9164874733 0.0835125267 0.3989774153  Biso 1.0 B
B4 1.0000000000 0.0835125267 0.9164874733 0.8989774153  Biso 1.0 B
B5 1.0000000000 0.7921033871 0.2078966129 0.2500000000  Biso 1.0 B
B6 1.0000000000 0.2078966129 0.7921033871 0.7500000000  Biso 1.0 B
Co7 1.0000000000 0.5000000000 0.5000000000 0.0000000000  Biso 1.0 Co
Co8 1.0000000000 0.5000000000 0.5000000000 0.5000000000  Biso 1.0 Co
W9 1.0000000000 0.2113244650 0.7886755350 0.1057719671  Biso 1.0 W
W10 1.0000000000 0.7886755350 0.2113244650 0.6057719671  Biso 1.0 W
W11 1.0000000000 0.2113244650 0.7886755350 0.3942280329  Biso 1.0 W
W12 1.0000000000 0.7886755350 0.2113244650 0.8942280329  Biso 1.0 W
W13 1.0000000000 0.4992940259 0.5007059741 0.2500000000  Biso 1.0 W
W14 1.0000000000 0.5007059741 0.4992940259 0.7500000000  Biso 1.0 W
