# AFLOW.org Repositories
# B3H12Y1   [FCC,FCC,cF128] (STD_PRIM doi:
data_B3H12Y1
_pd_phase_name B3H12Y1
_cell_length_a  7.8021198800
_cell_length_b  7.8021198800
_cell_length_c  7.8021198800
_cell_angle_alpha  60.0000000000
_cell_angle_beta  60.0000000000
_cell_angle_gamma  60.0000000000
_symmetry_space_group_name_H-M  'P1'
_symmetry_Int_Tables_Number  1
loop_
_symmetry_equiv_pos_site_id
_symmetry_equiv_pos_as_xyz
  1  x,y,z
loop_
 _atom_site_label
 _atom_site_occupancy
 _atom_site_fract_x
 _atom_site_fract_y
 _atom_site_fract_z
 _atom_site_thermal_displace_type
 _atom_site_B_iso_or_equiv
 _atom_site_type_symbol
B1 1.0000000000 0.2500000000 0.7500000000 0.7500000000  Biso 1.0 B
B2 1.0000000000 0.7500000000 0.2500000000 0.2500000000  Biso 1.0 B
B3 1.0000000000 0.7500000000 0.7500000000 0.2500000000  Biso 1.0 B
B4 1.0000000000 0.2500000000 0.2500000000 0.7500000000  Biso 1.0 B
B5 1.0000000000 0.7500000000 0.2500000000 0.7500000000  Biso 1.0 B
B6 1.0000000000 0.2500000000 0.7500000000 0.2500000000  Biso 1.0 B
H7 1.0000000000 0.9044271868 0.0955728132 0.2819158247  Biso 1.0 H
H8 1.0000000000 0.7180841753 0.2819158247 0.0955728132  Biso 1.0 H
H9 1.0000000000 0.2819158247 0.7180841753 0.9044271868  Biso 1.0 H
H10 1.0000000000 0.0955728132 0.9044271868 0.7180841753  Biso 1.0 H
H11 1.0000000000 0.0955728132 0.2819158247 0.9044271868  Biso 1.0 H
H12 1.0000000000 0.2819158247 0.0955728132 0.7180841753  Biso 1.0 H
H13 1.0000000000 0.7180841753 0.9044271868 0.2819158247  Biso 1.0 H
H14 1.0000000000 0.9044271868 0.7180841753 0.0955728132  Biso 1.0 H
H15 1.0000000000 0.2819158247 0.9044271868 0.0955728132  Biso 1.0 H
H16 1.0000000000 0.0955728132 0.7180841753 0.2819158247  Biso 1.0 H
H17 1.0000000000 0.9044271868 0.2819158247 0.7180841753  Biso 1.0 H
H18 1.0000000000 0.7180841753 0.0955728132 0.9044271868  Biso 1.0 H
H19 1.0000000000 0.7819158247 0.4044271868 0.2180841753  Biso 1.0 H
H20 1.0000000000 0.5955728132 0.2180841753 0.4044271868  Biso 1.0 H
H21 1.0000000000 0.4044271868 0.7819158247 0.5955728132  Biso 1.0 H
H22 1.0000000000 0.2180841753 0.5955728132 0.7819158247  Biso 1.0 H
H23 1.0000000000 0.7819158247 0.2180841753 0.5955728132  Biso 1.0 H
H24 1.0000000000 0.5955728132 0.4044271868 0.7819158247  Biso 1.0 H
H25 1.0000000000 0.4044271868 0.5955728132 0.2180841753  Biso 1.0 H
H26 1.0000000000 0.2180841753 0.7819158247 0.4044271868  Biso 1.0 H
H27 1.0000000000 0.7819158247 0.5955728132 0.4044271868  Biso 1.0 H
H28 1.0000000000 0.5955728132 0.7819158247 0.2180841753  Biso 1.0 H
H29 1.0000000000 0.4044271868 0.2180841753 0.7819158247  Biso 1.0 H
H30 1.0000000000 0.2180841753 0.4044271868 0.5955728132  Biso 1.0 H
Y31 1.0000000000 0.0000000000 0.0000000000 0.0000000000  Biso 1.0 Y
Y32 1.0000000000 0.5000000000 0.5000000000 0.5000000000  Biso 1.0 Y
