# AFLOW.org Repositories
# B4Cr1   [ORC,ORC,oP10] (STD_PRIM doi:10.
data_B4Cr1
_pd_phase_name B4Cr1
_cell_length_a  2.8561830841
_cell_length_b  4.7219091318
_cell_length_c  5.4858808316
_cell_angle_alpha  90.0000000000
_cell_angle_beta  90.0000000000
_cell_angle_gamma  90.0000000000
_symmetry_space_group_name_H-M  'P1'
_symmetry_Int_Tables_Number  1
loop_
_symmetry_equiv_pos_site_id
_symmetry_equiv_pos_as_xyz
  1  x,y,z
loop_
 _atom_site_label
 _atom_site_occupancy
 _atom_site_fract_x
 _atom_site_fract_y
 _atom_site_fract_z
 _atom_site_thermal_displace_type
 _atom_site_B_iso_or_equiv
 _atom_site_type_symbol
B1 1.0000000000 0.0000000000 0.1582398398 0.3738972302  Biso 1.0 B
B2 1.0000000000 0.0000000000 0.8417601602 0.6261027698  Biso 1.0 B
B3 1.0000000000 0.5000000000 0.3417601602 0.8738972302  Biso 1.0 B
B4 1.0000000000 0.5000000000 0.6582398398 0.1261027698  Biso 1.0 B
B5 1.0000000000 0.0000000000 0.2290632863 0.6834088402  Biso 1.0 B
B6 1.0000000000 0.0000000000 0.7709367137 0.3165911598  Biso 1.0 B
B7 1.0000000000 0.5000000000 0.2709367137 0.1834088402  Biso 1.0 B
B8 1.0000000000 0.5000000000 0.7290632863 0.8165911598  Biso 1.0 B
Cr9 1.0000000000 0.0000000000 0.0000000000 0.0000000000  Biso 1.0 Cr
Cr10 1.0000000000 0.5000000000 0.5000000000 0.5000000000  Biso 1.0 Cr
