# AFLOW.org Repositories
# B4H16Hf1   [CUB,CUB,cP21] (STD_PRIM doi:
data_B4H16Hf1
_pd_phase_name B4H16Hf1
_cell_length_a  6.0191319418
_cell_length_b  6.0191319418
_cell_length_c  6.0191319418
_cell_angle_alpha  90.0000000000
_cell_angle_beta  90.0000000000
_cell_angle_gamma  90.0000000000
_symmetry_space_group_name_H-M  'P1'
_symmetry_Int_Tables_Number  1
loop_
_symmetry_equiv_pos_site_id
_symmetry_equiv_pos_as_xyz
  1  x,y,z
loop_
 _atom_site_label
 _atom_site_occupancy
 _atom_site_fract_x
 _atom_site_fract_y
 _atom_site_fract_z
 _atom_site_thermal_displace_type
 _atom_site_B_iso_or_equiv
 _atom_site_type_symbol
B1 1.0000000000 0.7803211204 0.7803211204 0.2196788796  Biso 1.0 B
B2 1.0000000000 0.2196788796 0.2196788796 0.2196788796  Biso 1.0 B
B3 1.0000000000 0.2196788796 0.7803211204 0.7803211204  Biso 1.0 B
B4 1.0000000000 0.7803211204 0.2196788796 0.7803211204  Biso 1.0 B
H5 1.0000000000 0.6657371028 0.6657371028 0.3342628972  Biso 1.0 H
H6 1.0000000000 0.3342628972 0.3342628972 0.3342628972  Biso 1.0 H
H7 1.0000000000 0.3342628972 0.6657371028 0.6657371028  Biso 1.0 H
H8 1.0000000000 0.6657371028 0.3342628972 0.6657371028  Biso 1.0 H
H9 1.0000000000 0.7496421307 0.7496421307 0.0168295118  Biso 1.0 H
H10 1.0000000000 0.2503578693 0.2503578693 0.0168295118  Biso 1.0 H
H11 1.0000000000 0.2503578693 0.7496421307 0.9831704882  Biso 1.0 H
H12 1.0000000000 0.7496421307 0.2503578693 0.9831704882  Biso 1.0 H
H13 1.0000000000 0.9831704882 0.7496421307 0.2503578693  Biso 1.0 H
H14 1.0000000000 0.9831704882 0.2503578693 0.7496421307  Biso 1.0 H
H15 1.0000000000 0.0168295118 0.2503578693 0.2503578693  Biso 1.0 H
H16 1.0000000000 0.0168295118 0.7496421307 0.7496421307  Biso 1.0 H
H17 1.0000000000 0.7496421307 0.9831704882 0.2503578693  Biso 1.0 H
H18 1.0000000000 0.2503578693 0.9831704882 0.7496421307  Biso 1.0 H
H19 1.0000000000 0.7496421307 0.0168295118 0.7496421307  Biso 1.0 H
H20 1.0000000000 0.2503578693 0.0168295118 0.2503578693  Biso 1.0 H
Hf21 1.0000000000 0.0000000000 0.0000000000 0.0000000000  Biso 1.0 Hf
