# AFLOW.org Repositories
# B4Ir3Zr1   [HEX,HEX,hP16] (STD_PRIM doi:
data_B4Ir3Zr1
_pd_phase_name B4Ir3Zr1
_cell_length_a  7.6258866056
_cell_length_b  7.6258866056
_cell_length_c  3.4920070760
_cell_angle_alpha  90.0000000000
_cell_angle_beta  90.0000000000
_cell_angle_gamma  120.0000000000
_symmetry_space_group_name_H-M  'P1'
_symmetry_Int_Tables_Number  1
loop_
_symmetry_equiv_pos_site_id
_symmetry_equiv_pos_as_xyz
  1  x,y,z
loop_
 _atom_site_label
 _atom_site_occupancy
 _atom_site_fract_x
 _atom_site_fract_y
 _atom_site_fract_z
 _atom_site_thermal_displace_type
 _atom_site_B_iso_or_equiv
 _atom_site_type_symbol
B1 1.0000000000 0.4473846743 0.0520095973 0.2500000000  Biso 1.0 B
B2 1.0000000000 0.9479908054 0.3953760376 0.2500000000  Biso 1.0 B
B3 1.0000000000 0.6046248833 0.5526156569 0.2500000000  Biso 1.0 B
B4 1.0000000000 0.5526153257 0.9479904027 0.7500000000  Biso 1.0 B
B5 1.0000000000 0.0520091946 0.6046239624 0.7500000000  Biso 1.0 B
B6 1.0000000000 0.3953751167 0.4473843431 0.7500000000  Biso 1.0 B
B7 1.0000000000 0.0000000000 0.0000000000 0.0000000000  Biso 1.0 B
B8 1.0000000000 0.0000000000 0.0000000000 0.5000000000  Biso 1.0 B
Ir9 1.0000000000 0.3321770795 0.2590431586 0.2500000000  Biso 1.0 Ir
Ir10 1.0000000000 0.7409594151 0.0731380359 0.2500000000  Biso 1.0 Ir
Ir11 1.0000000000 0.9268684559 0.6678204050 0.2500000000  Biso 1.0 Ir
Ir12 1.0000000000 0.6678229205 0.7409568414 0.7500000000  Biso 1.0 Ir
Ir13 1.0000000000 0.2590405849 0.9268619641 0.7500000000  Biso 1.0 Ir
Ir14 1.0000000000 0.0731315441 0.3321795950 0.7500000000  Biso 1.0 Ir
Zr15 1.0000000000 0.6666671488 0.3333348178 0.7500000000  Biso 1.0 Zr
Zr16 1.0000000000 0.3333328512 0.6666651822 0.2500000000  Biso 1.0 Zr
