# AFLOW.org Repositories
# B4Mn1   [MCLC,MCLC5,mS10] (STD_PRIM doi:
data_B4Mn1
_pd_phase_name B4Mn1
_cell_length_a  3.8508491351
_cell_length_b  3.8508491351
_cell_length_c  3.8508491351
_cell_angle_alpha  134.8230244534
_cell_angle_beta  105.8787899331
_cell_angle_gamma  91.2306662732
_symmetry_space_group_name_H-M  'P1'
_symmetry_Int_Tables_Number  1
loop_
_symmetry_equiv_pos_site_id
_symmetry_equiv_pos_as_xyz
  1  x,y,z
loop_
 _atom_site_label
 _atom_site_occupancy
 _atom_site_fract_x
 _atom_site_fract_y
 _atom_site_fract_z
 _atom_site_thermal_displace_type
 _atom_site_B_iso_or_equiv
 _atom_site_type_symbol
B1 1.0000000000 0.5444417529 0.3411460755 0.2031628535  Biso 1.0 B
B2 1.0000000000 0.1379832220 0.3412788994 0.7968371465  Biso 1.0 B
B3 1.0000000000 0.4555582471 0.6588539245 0.7968371465  Biso 1.0 B
B4 1.0000000000 0.8620167780 0.6587211006 0.2031628535  Biso 1.0 B
Mn5 1.0000000000 0.0000000000 0.0000000000 0.0000000000  Biso 1.0 Mn
