# AFLOW.org Repositories
# B4Nb3   [ORCI,ORCI,oI14] (STD_PRIM doi:1
data_B4Nb3
_pd_phase_name B4Nb3
_cell_length_a  7.4424664845
_cell_length_b  7.4424664845
_cell_length_c  7.4424664845
_cell_angle_alpha  155.4785739374
_cell_angle_beta  154.1602962772
_cell_angle_gamma  35.9213497902
_symmetry_space_group_name_H-M  'P1'
_symmetry_Int_Tables_Number  1
loop_
_symmetry_equiv_pos_site_id
_symmetry_equiv_pos_as_xyz
  1  x,y,z
loop_
 _atom_site_label
 _atom_site_occupancy
 _atom_site_fract_x
 _atom_site_fract_y
 _atom_site_fract_z
 _atom_site_thermal_displace_type
 _atom_site_B_iso_or_equiv
 _atom_site_type_symbol
B1 1.0000000000 0.3678817960 0.3678817960 0.0000000000  Biso 1.0 B
B2 1.0000000000 0.6321182040 0.6321182040 0.0000000000  Biso 1.0 B
B3 1.0000000000 0.4357709587 0.9357709587 0.5000000000  Biso 1.0 B
B4 1.0000000000 0.5642290413 0.0642290413 0.5000000000  Biso 1.0 B
Nb5 1.0000000000 0.0000000000 0.5000000000 0.5000000000  Biso 1.0 Nb
Nb6 1.0000000000 0.1849468521 0.1849468521 0.0000000000  Biso 1.0 Nb
Nb7 1.0000000000 0.8150531479 0.8150531479 0.0000000000  Biso 1.0 Nb
