# AFLOW.org Repositories
# B4Re1Th1   [ORCC,ORCC,oS24] (STD_PRIM do
data_B4Re1Th1
_pd_phase_name B4Re1Th1
_cell_length_a  6.1806561379
_cell_length_b  6.1806561379
_cell_length_c  3.7868335749
_cell_angle_alpha  90.0000000000
_cell_angle_beta  90.0000000000
_cell_angle_gamma  104.1231415093
_symmetry_space_group_name_H-M  'P1'
_symmetry_Int_Tables_Number  1
loop_
_symmetry_equiv_pos_site_id
_symmetry_equiv_pos_as_xyz
  1  x,y,z
loop_
 _atom_site_label
 _atom_site_occupancy
 _atom_site_fract_x
 _atom_site_fract_y
 _atom_site_fract_z
 _atom_site_thermal_displace_type
 _atom_site_B_iso_or_equiv
 _atom_site_type_symbol
B1 1.0000000000 0.6286481358 0.9356537575 0.5000000000  Biso 1.0 B
B2 1.0000000000 0.3713518642 0.0643462425 0.5000000000  Biso 1.0 B
B3 1.0000000000 0.0643462425 0.3713518642 0.5000000000  Biso 1.0 B
B4 1.0000000000 0.9356537575 0.6286481358 0.5000000000  Biso 1.0 B
B5 1.0000000000 0.6329805992 0.6329805992 0.5000000000  Biso 1.0 B
B6 1.0000000000 0.3670194008 0.3670194008 0.5000000000  Biso 1.0 B
B7 1.0000000000 0.9120770654 0.0879229346 0.5000000000  Biso 1.0 B
B8 1.0000000000 0.0879229346 0.9120770654 0.5000000000  Biso 1.0 B
Re9 1.0000000000 0.8197552775 0.8197552775 0.0000000000  Biso 1.0 Re
Re10 1.0000000000 0.1802447225 0.1802447225 0.0000000000  Biso 1.0 Re
Th11 1.0000000000 0.6980057265 0.3019942735 0.0000000000  Biso 1.0 Th
Th12 1.0000000000 0.3019942735 0.6980057265 0.0000000000  Biso 1.0 Th
