# AFLOW.org Repositories
# B4Rh4Th1   [TET,TET,tP18] (STD_PRIM doi:
data_B4Rh4Th1
_pd_phase_name B4Rh4Th1
_cell_length_a  5.3942066588
_cell_length_b  5.3942066588
_cell_length_c  7.6769947706
_cell_angle_alpha  90.0000000000
_cell_angle_beta  90.0000000000
_cell_angle_gamma  90.0000000000
_symmetry_space_group_name_H-M  'P1'
_symmetry_Int_Tables_Number  1
loop_
_symmetry_equiv_pos_site_id
_symmetry_equiv_pos_as_xyz
  1  x,y,z
loop_
 _atom_site_label
 _atom_site_occupancy
 _atom_site_fract_x
 _atom_site_fract_y
 _atom_site_fract_z
 _atom_site_thermal_displace_type
 _atom_site_B_iso_or_equiv
 _atom_site_type_symbol
B1 1.0000000000 0.2500000000 0.0831185351 0.0959599864  Biso 1.0 B
B2 1.0000000000 0.2500000000 0.4168814649 0.0959599864  Biso 1.0 B
B3 1.0000000000 0.4168814649 0.2500000000 0.5959599864  Biso 1.0 B
B4 1.0000000000 0.0831185351 0.2500000000 0.5959599864  Biso 1.0 B
B5 1.0000000000 0.7500000000 0.5831185351 0.9040400136  Biso 1.0 B
B6 1.0000000000 0.7500000000 0.9168814649 0.9040400136  Biso 1.0 B
B7 1.0000000000 0.5831185351 0.7500000000 0.4040400136  Biso 1.0 B
B8 1.0000000000 0.9168814649 0.7500000000 0.4040400136  Biso 1.0 B
Rh9 1.0000000000 0.2500000000 0.4993179222 0.3936518425  Biso 1.0 Rh
Rh10 1.0000000000 0.2500000000 0.0000000000 0.3936518425  Biso 1.0 Rh
Rh11 1.0000000000 0.0000000000 0.2500000000 0.8936518425  Biso 1.0 Rh
Rh12 1.0000000000 0.4993179222 0.2500000000 0.8936518425  Biso 1.0 Rh
Rh13 1.0000000000 0.7500000000 0.0000000000 0.6063481575  Biso 1.0 Rh
Rh14 1.0000000000 0.7500000000 0.5006820778 0.6063481575  Biso 1.0 Rh
Rh15 1.0000000000 0.0000000000 0.7500000000 0.1063481575  Biso 1.0 Rh
Rh16 1.0000000000 0.5006820778 0.7500000000 0.1063481575  Biso 1.0 Rh
Th17 1.0000000000 0.7500000000 0.2500000000 0.2500000000  Biso 1.0 Th
Th18 1.0000000000 0.2500000000 0.7500000000 0.7500000000  Biso 1.0 Th
