# AFLOW.org Repositories
# B4Rh4Y1   [TET,TET,tP18] (STD_PRIM doi:1
data_B4Rh4Y1
_pd_phase_name B4Rh4Y1
_cell_length_a  5.3194484837
_cell_length_b  5.3194484837
_cell_length_c  7.4479410109
_cell_angle_alpha  90.0000000000
_cell_angle_beta  90.0000000000
_cell_angle_gamma  90.0000000000
_symmetry_space_group_name_H-M  'P1'
_symmetry_Int_Tables_Number  1
loop_
_symmetry_equiv_pos_site_id
_symmetry_equiv_pos_as_xyz
  1  x,y,z
loop_
 _atom_site_label
 _atom_site_occupancy
 _atom_site_fract_x
 _atom_site_fract_y
 _atom_site_fract_z
 _atom_site_thermal_displace_type
 _atom_site_B_iso_or_equiv
 _atom_site_type_symbol
B1 1.0000000000 0.0000000000 0.3301397708 0.8512158657  Biso 1.0 B
B2 1.0000000000 0.0000000000 0.6698602292 0.8512158657  Biso 1.0 B
B3 1.0000000000 0.1698602292 0.5000000000 0.3512158657  Biso 1.0 B
B4 1.0000000000 0.8301397708 0.5000000000 0.3512158657  Biso 1.0 B
B5 1.0000000000 0.5000000000 0.8301397708 0.6487841343  Biso 1.0 B
B6 1.0000000000 0.5000000000 0.1698602292 0.6487841343  Biso 1.0 B
B7 1.0000000000 0.3301397708 0.0000000000 0.1487841343  Biso 1.0 B
B8 1.0000000000 0.6698602292 0.0000000000 0.1487841343  Biso 1.0 B
Rh9 1.0000000000 0.0000000000 0.2489915183 0.1465205629  Biso 1.0 Rh
Rh10 1.0000000000 0.0000000000 0.7510084817 0.1465205629  Biso 1.0 Rh
Rh11 1.0000000000 0.2510084817 0.5000000000 0.6465205629  Biso 1.0 Rh
Rh12 1.0000000000 0.7489915183 0.5000000000 0.6465205629  Biso 1.0 Rh
Rh13 1.0000000000 0.5000000000 0.7489915183 0.3534794371  Biso 1.0 Rh
Rh14 1.0000000000 0.5000000000 0.2510084817 0.3534794371  Biso 1.0 Rh
Rh15 1.0000000000 0.2489915183 0.0000000000 0.8534794371  Biso 1.0 Rh
Rh16 1.0000000000 0.7510084817 0.0000000000 0.8534794371  Biso 1.0 Rh
Y17 1.0000000000 0.0000000000 0.0000000000 0.5000000000  Biso 1.0 Y
Y18 1.0000000000 0.5000000000 0.5000000000 0.0000000000  Biso 1.0 Y
