# AFLOW.org Repositories
# B4Th1W1   [ORCC,ORCC,oS24] (STD_PRIM doi
data_B4Th1W1
_pd_phase_name B4Th1W1
_cell_length_a  6.2118619616
_cell_length_b  6.2118619616
_cell_length_c  3.8317673718
_cell_angle_alpha  90.0000000000
_cell_angle_beta  90.0000000000
_cell_angle_gamma  104.3877794358
_symmetry_space_group_name_H-M  'P1'
_symmetry_Int_Tables_Number  1
loop_
_symmetry_equiv_pos_site_id
_symmetry_equiv_pos_as_xyz
  1  x,y,z
loop_
 _atom_site_label
 _atom_site_occupancy
 _atom_site_fract_x
 _atom_site_fract_y
 _atom_site_fract_z
 _atom_site_thermal_displace_type
 _atom_site_B_iso_or_equiv
 _atom_site_type_symbol
B1 1.0000000000 0.6260753492 0.9334409321 0.5000000000  Biso 1.0 B
B2 1.0000000000 0.3739246508 0.0665590679 0.5000000000  Biso 1.0 B
B3 1.0000000000 0.0665590679 0.3739246508 0.5000000000  Biso 1.0 B
B4 1.0000000000 0.9334409321 0.6260753492 0.5000000000  Biso 1.0 B
B5 1.0000000000 0.6312441209 0.6312441209 0.5000000000  Biso 1.0 B
B6 1.0000000000 0.3687558791 0.3687558791 0.5000000000  Biso 1.0 B
B7 1.0000000000 0.9116075963 0.0883924037 0.5000000000  Biso 1.0 B
B8 1.0000000000 0.0883924037 0.9116075963 0.5000000000  Biso 1.0 B
Th9 1.0000000000 0.6981543970 0.3018456030 0.0000000000  Biso 1.0 Th
Th10 1.0000000000 0.3018456030 0.6981543970 0.0000000000  Biso 1.0 Th
W11 1.0000000000 0.8297505625 0.8297505625 0.0000000000  Biso 1.0 W
W12 1.0000000000 0.1702494375 0.1702494375 0.0000000000  Biso 1.0 W
