# AFLOW.org Repositories
# B4Ti3   [ORCI,ORCI,oI14] (STD_PRIM doi:1
data_B4Ti3
_pd_phase_name B4Ti3
_cell_length_a  7.3171583844
_cell_length_b  7.3171583844
_cell_length_c  7.3171583844
_cell_angle_alpha  155.7860913470
_cell_angle_beta  153.7370288978
_cell_angle_gamma  36.0218121775
_symmetry_space_group_name_H-M  'P1'
_symmetry_Int_Tables_Number  1
loop_
_symmetry_equiv_pos_site_id
_symmetry_equiv_pos_as_xyz
  1  x,y,z
loop_
 _atom_site_label
 _atom_site_occupancy
 _atom_site_fract_x
 _atom_site_fract_y
 _atom_site_fract_z
 _atom_site_thermal_displace_type
 _atom_site_B_iso_or_equiv
 _atom_site_type_symbol
B1 1.0000000000 0.6309001571 0.6309001571 0.0000000000  Biso 1.0 B
B2 1.0000000000 0.3690998429 0.3690998429 0.0000000000  Biso 1.0 B
B3 1.0000000000 0.5640977099 0.0640977099 0.5000000000  Biso 1.0 B
B4 1.0000000000 0.4359022901 0.9359022901 0.5000000000  Biso 1.0 B
Ti5 1.0000000000 0.0000000000 0.5000000000 0.5000000000  Biso 1.0 Ti
Ti6 1.0000000000 0.8149243563 0.8149243563 0.0000000000  Biso 1.0 Ti
Ti7 1.0000000000 0.1850756437 0.1850756437 0.0000000000  Biso 1.0 Ti
