# AFLOW.org Repositories
# B6H6K2   [FCC,FCC,cF56] (STD_PRIM doi:10
data_B6H6K2
_pd_phase_name B6H6K2
_cell_length_a  6.3000731178
_cell_length_b  6.3000731178
_cell_length_c  6.3000731178
_cell_angle_alpha  60.0000000000
_cell_angle_beta  60.0000000000
_cell_angle_gamma  60.0000000000
_symmetry_space_group_name_H-M  'P1'
_symmetry_Int_Tables_Number  1
loop_
_symmetry_equiv_pos_site_id
_symmetry_equiv_pos_as_xyz
  1  x,y,z
loop_
 _atom_site_label
 _atom_site_occupancy
 _atom_site_fract_x
 _atom_site_fract_y
 _atom_site_fract_z
 _atom_site_thermal_displace_type
 _atom_site_B_iso_or_equiv
 _atom_site_type_symbol
B1 1.0000000000 0.1372289580 0.8627710420 0.1372289580  Biso 1.0 B
B2 1.0000000000 0.8627710420 0.1372289580 0.8627710420  Biso 1.0 B
B3 1.0000000000 0.1372289580 0.8627710420 0.8627710420  Biso 1.0 B
B4 1.0000000000 0.8627710420 0.1372289580 0.1372289580  Biso 1.0 B
B5 1.0000000000 0.1372289580 0.1372289580 0.8627710420  Biso 1.0 B
B6 1.0000000000 0.8627710420 0.8627710420 0.1372289580  Biso 1.0 B
H7 1.0000000000 0.2726896896 0.7273103104 0.2726896896  Biso 1.0 H
H8 1.0000000000 0.7273103104 0.2726896896 0.7273103104  Biso 1.0 H
H9 1.0000000000 0.2726896896 0.7273103104 0.7273103104  Biso 1.0 H
H10 1.0000000000 0.7273103104 0.2726896896 0.2726896896  Biso 1.0 H
H11 1.0000000000 0.2726896896 0.2726896896 0.7273103104  Biso 1.0 H
H12 1.0000000000 0.7273103104 0.7273103104 0.2726896896  Biso 1.0 H
K13 1.0000000000 0.7500000000 0.7500000000 0.7500000000  Biso 1.0 K
K14 1.0000000000 0.2500000000 0.2500000000 0.2500000000  Biso 1.0 K
