# AFLOW.org Repositories
# B6Hf3Ni20   [FCC,FCC,cF116] (STD_PRIM do
data_B6Hf3Ni20
_pd_phase_name B6Hf3Ni20
_cell_length_a  7.4922669142
_cell_length_b  7.4922669142
_cell_length_c  7.4922669142
_cell_angle_alpha  60.0000000000
_cell_angle_beta  60.0000000000
_cell_angle_gamma  60.0000000000
_symmetry_space_group_name_H-M  'P1'
_symmetry_Int_Tables_Number  1
loop_
_symmetry_equiv_pos_site_id
_symmetry_equiv_pos_as_xyz
  1  x,y,z
loop_
 _atom_site_label
 _atom_site_occupancy
 _atom_site_fract_x
 _atom_site_fract_y
 _atom_site_fract_z
 _atom_site_thermal_displace_type
 _atom_site_B_iso_or_equiv
 _atom_site_type_symbol
B1 1.0000000000 0.2674537005 0.7325462995 0.7325462995  Biso 1.0 B
B2 1.0000000000 0.7325462995 0.2674537005 0.2674537005  Biso 1.0 B
B3 1.0000000000 0.7325462995 0.2674537005 0.7325462995  Biso 1.0 B
B4 1.0000000000 0.2674537005 0.7325462995 0.2674537005  Biso 1.0 B
B5 1.0000000000 0.2674537005 0.2674537005 0.7325462995  Biso 1.0 B
B6 1.0000000000 0.7325462995 0.7325462995 0.2674537005  Biso 1.0 B
Hf7 1.0000000000 0.0000000000 0.0000000000 0.0000000000  Biso 1.0 Hf
Hf8 1.0000000000 0.2500000000 0.2500000000 0.2500000000  Biso 1.0 Hf
Hf9 1.0000000000 0.7500000000 0.7500000000 0.7500000000  Biso 1.0 Hf
Ni10 1.0000000000 0.3860509657 0.3860509657 0.8418471029  Biso 1.0 Ni
Ni11 1.0000000000 0.3860509657 0.3860509657 0.3860509657  Biso 1.0 Ni
Ni12 1.0000000000 0.8418471029 0.3860509657 0.3860509657  Biso 1.0 Ni
Ni13 1.0000000000 0.3860509657 0.8418471029 0.3860509657  Biso 1.0 Ni
Ni14 1.0000000000 0.6139490343 0.6139490343 0.6139490343  Biso 1.0 Ni
Ni15 1.0000000000 0.6139490343 0.6139490343 0.1581528971  Biso 1.0 Ni
Ni16 1.0000000000 0.1581528971 0.6139490343 0.6139490343  Biso 1.0 Ni
Ni17 1.0000000000 0.6139490343 0.1581528971 0.6139490343  Biso 1.0 Ni
Ni18 1.0000000000 0.0000000000 0.3438775559 0.6561224441  Biso 1.0 Ni
Ni19 1.0000000000 0.3438775559 0.0000000000 0.0000000000  Biso 1.0 Ni
Ni20 1.0000000000 0.6561224441 0.0000000000 0.0000000000  Biso 1.0 Ni
Ni21 1.0000000000 0.0000000000 0.6561224441 0.3438775559  Biso 1.0 Ni
Ni22 1.0000000000 0.3438775559 0.0000000000 0.6561224441  Biso 1.0 Ni
Ni23 1.0000000000 0.0000000000 0.6561224441 0.0000000000  Biso 1.0 Ni
Ni24 1.0000000000 0.0000000000 0.3438775559 0.0000000000  Biso 1.0 Ni
Ni25 1.0000000000 0.6561224441 0.0000000000 0.3438775559  Biso 1.0 Ni
Ni26 1.0000000000 0.0000000000 0.0000000000 0.6561224441  Biso 1.0 Ni
Ni27 1.0000000000 0.6561224441 0.3438775559 0.0000000000  Biso 1.0 Ni
Ni28 1.0000000000 0.3438775559 0.6561224441 0.0000000000  Biso 1.0 Ni
Ni29 1.0000000000 0.0000000000 0.0000000000 0.3438775559  Biso 1.0 Ni
