# AFLOW.org Repositories
# B6Ni21U2   [FCC,FCC,cF116] (STD_PRIM doi
data_B6Ni21U2
_pd_phase_name B6Ni21U2
_cell_length_a  7.4790648845
_cell_length_b  7.4790648845
_cell_length_c  7.4790648845
_cell_angle_alpha  60.0000000000
_cell_angle_beta  60.0000000000
_cell_angle_gamma  60.0000000000
_symmetry_space_group_name_H-M  'P1'
_symmetry_Int_Tables_Number  1
loop_
_symmetry_equiv_pos_site_id
_symmetry_equiv_pos_as_xyz
  1  x,y,z
loop_
 _atom_site_label
 _atom_site_occupancy
 _atom_site_fract_x
 _atom_site_fract_y
 _atom_site_fract_z
 _atom_site_thermal_displace_type
 _atom_site_B_iso_or_equiv
 _atom_site_type_symbol
B1 1.0000000000 0.7352195667 0.2647804333 0.2647804333  Biso 1.0 B
B2 1.0000000000 0.2647804333 0.7352195667 0.7352195667  Biso 1.0 B
B3 1.0000000000 0.7352195667 0.2647804333 0.7352195667  Biso 1.0 B
B4 1.0000000000 0.2647804333 0.7352195667 0.2647804333  Biso 1.0 B
B5 1.0000000000 0.7352195667 0.7352195667 0.2647804333  Biso 1.0 B
B6 1.0000000000 0.2647804333 0.2647804333 0.7352195667  Biso 1.0 B
Ni7 1.0000000000 0.0000000000 0.0000000000 0.0000000000  Biso 1.0 Ni
Ni8 1.0000000000 0.8414350668 0.3861883111 0.3861883111  Biso 1.0 Ni
Ni9 1.0000000000 0.3861883111 0.8414350668 0.3861883111  Biso 1.0 Ni
Ni10 1.0000000000 0.3861883111 0.3861883111 0.8414350668  Biso 1.0 Ni
Ni11 1.0000000000 0.3861883111 0.3861883111 0.3861883111  Biso 1.0 Ni
Ni12 1.0000000000 0.6138116889 0.1585649332 0.6138116889  Biso 1.0 Ni
Ni13 1.0000000000 0.1585649332 0.6138116889 0.6138116889  Biso 1.0 Ni
Ni14 1.0000000000 0.6138116889 0.6138116889 0.1585649332  Biso 1.0 Ni
Ni15 1.0000000000 0.6138116889 0.6138116889 0.6138116889  Biso 1.0 Ni
Ni16 1.0000000000 0.6598939942 0.0000000000 0.0000000000  Biso 1.0 Ni
Ni17 1.0000000000 0.0000000000 0.6598939942 0.3401060058  Biso 1.0 Ni
Ni18 1.0000000000 0.0000000000 0.3401060058 0.6598939942  Biso 1.0 Ni
Ni19 1.0000000000 0.3401060058 0.0000000000 0.0000000000  Biso 1.0 Ni
Ni20 1.0000000000 0.6598939942 0.0000000000 0.3401060058  Biso 1.0 Ni
Ni21 1.0000000000 0.0000000000 0.3401060058 0.0000000000  Biso 1.0 Ni
Ni22 1.0000000000 0.0000000000 0.6598939942 0.0000000000  Biso 1.0 Ni
Ni23 1.0000000000 0.3401060058 0.0000000000 0.6598939942  Biso 1.0 Ni
Ni24 1.0000000000 0.6598939942 0.3401060058 0.0000000000  Biso 1.0 Ni
Ni25 1.0000000000 0.0000000000 0.0000000000 0.6598939942  Biso 1.0 Ni
Ni26 1.0000000000 0.0000000000 0.0000000000 0.3401060058  Biso 1.0 Ni
Ni27 1.0000000000 0.3401060058 0.6598939942 0.0000000000  Biso 1.0 Ni
U28 1.0000000000 0.2500000000 0.2500000000 0.2500000000  Biso 1.0 U
U29 1.0000000000 0.7500000000 0.7500000000 0.7500000000  Biso 1.0 U
