# AFLOW.org Repositories
# B7Mn1Y3   [ORCC,ORCC,oS44] (STD_PRIM doi
data_B7Mn1Y3
_pd_phase_name B7Mn1Y3
_cell_length_a  8.0533861464
_cell_length_b  8.0533861464
_cell_length_c  9.3052109275
_cell_angle_alpha  90.0000000000
_cell_angle_beta  90.0000000000
_cell_angle_gamma  155.1639994908
_symmetry_space_group_name_H-M  'P1'
_symmetry_Int_Tables_Number  1
loop_
_symmetry_equiv_pos_site_id
_symmetry_equiv_pos_as_xyz
  1  x,y,z
loop_
 _atom_site_label
 _atom_site_occupancy
 _atom_site_fract_x
 _atom_site_fract_y
 _atom_site_fract_z
 _atom_site_thermal_displace_type
 _atom_site_B_iso_or_equiv
 _atom_site_type_symbol
B1 1.0000000000 0.7273124401 0.2726875599 0.9668580868  Biso 1.0 B
B2 1.0000000000 0.2726875599 0.7273124401 0.4668580868  Biso 1.0 B
B3 1.0000000000 0.7273124401 0.2726875599 0.5331419132  Biso 1.0 B
B4 1.0000000000 0.2726875599 0.7273124401 0.0331419132  Biso 1.0 B
B5 1.0000000000 0.6297712169 0.3702287831 0.6528399391  Biso 1.0 B
B6 1.0000000000 0.3702287831 0.6297712169 0.1528399391  Biso 1.0 B
B7 1.0000000000 0.6297712169 0.3702287831 0.8471600609  Biso 1.0 B
B8 1.0000000000 0.3702287831 0.6297712169 0.3471600609  Biso 1.0 B
B9 1.0000000000 0.5212761205 0.4787238795 0.5980476227  Biso 1.0 B
B10 1.0000000000 0.4787238795 0.5212761205 0.0980476227  Biso 1.0 B
B11 1.0000000000 0.5212761205 0.4787238795 0.9019523773  Biso 1.0 B
B12 1.0000000000 0.4787238795 0.5212761205 0.4019523773  Biso 1.0 B
B13 1.0000000000 0.4596808488 0.5403191512 0.7500000000  Biso 1.0 B
B14 1.0000000000 0.5403191512 0.4596808488 0.2500000000  Biso 1.0 B
Mn15 1.0000000000 0.0535049788 0.9464950212 0.7500000000  Biso 1.0 Mn
Mn16 1.0000000000 0.9464950212 0.0535049788 0.2500000000  Biso 1.0 Mn
Y17 1.0000000000 0.8961428868 0.1038571132 0.9405961438  Biso 1.0 Y
Y18 1.0000000000 0.1038571132 0.8961428868 0.4405961438  Biso 1.0 Y
Y19 1.0000000000 0.8961428868 0.1038571132 0.5594038562  Biso 1.0 Y
Y20 1.0000000000 0.1038571132 0.8961428868 0.0594038562  Biso 1.0 Y
Y21 1.0000000000 0.2398399716 0.7601600284 0.7500000000  Biso 1.0 Y
Y22 1.0000000000 0.7601600284 0.2398399716 0.2500000000  Biso 1.0 Y
