# AFLOW.org Repositories
# B7Mo3Y1   [ORC,ORC,oP44] (STD_PRIM doi:1
data_B7Mo3Y1
_pd_phase_name B7Mo3Y1
_cell_length_a  3.1129588679
_cell_length_b  11.0696306012
_cell_length_c  12.9434663753
_cell_angle_alpha  90.0000000000
_cell_angle_beta  90.0000000000
_cell_angle_gamma  90.0000000000
_symmetry_space_group_name_H-M  'P1'
_symmetry_Int_Tables_Number  1
loop_
_symmetry_equiv_pos_site_id
_symmetry_equiv_pos_as_xyz
  1  x,y,z
loop_
 _atom_site_label
 _atom_site_occupancy
 _atom_site_fract_x
 _atom_site_fract_y
 _atom_site_fract_z
 _atom_site_thermal_displace_type
 _atom_site_B_iso_or_equiv
 _atom_site_type_symbol
B1 1.0000000000 0.2500000000 0.4895196814 0.6374251567  Biso 1.0 B
B2 1.0000000000 0.7500000000 0.0104803186 0.1374251567  Biso 1.0 B
B3 1.0000000000 0.7500000000 0.5104803186 0.3625748433  Biso 1.0 B
B4 1.0000000000 0.2500000000 0.9895196814 0.8625748433  Biso 1.0 B
B5 1.0000000000 0.2500000000 0.3342022166 0.6668525889  Biso 1.0 B
B6 1.0000000000 0.7500000000 0.1657977834 0.1668525889  Biso 1.0 B
B7 1.0000000000 0.7500000000 0.6657977834 0.3331474111  Biso 1.0 B
B8 1.0000000000 0.2500000000 0.8342022166 0.8331474111  Biso 1.0 B
B9 1.0000000000 0.2500000000 0.3139158971 0.9333414819  Biso 1.0 B
B10 1.0000000000 0.7500000000 0.1860841029 0.4333414819  Biso 1.0 B
B11 1.0000000000 0.7500000000 0.6860841029 0.0666585181  Biso 1.0 B
B12 1.0000000000 0.2500000000 0.8139158971 0.5666585181  Biso 1.0 B
B13 1.0000000000 0.2500000000 0.4320345903 0.3839258910  Biso 1.0 B
B14 1.0000000000 0.7500000000 0.0679654097 0.8839258910  Biso 1.0 B
B15 1.0000000000 0.7500000000 0.5679654097 0.6160741090  Biso 1.0 B
B16 1.0000000000 0.2500000000 0.9320345903 0.1160741090  Biso 1.0 B
B17 1.0000000000 0.2500000000 0.4624200150 0.9820696497  Biso 1.0 B
B18 1.0000000000 0.7500000000 0.0375799850 0.4820696497  Biso 1.0 B
B19 1.0000000000 0.7500000000 0.5375799850 0.0179303503  Biso 1.0 B
B20 1.0000000000 0.2500000000 0.9624200150 0.5179303503  Biso 1.0 B
B21 1.0000000000 0.2500000000 0.2502570470 0.1734421678  Biso 1.0 B
B22 1.0000000000 0.7500000000 0.2497429530 0.6734421678  Biso 1.0 B
B23 1.0000000000 0.7500000000 0.7497429530 0.8265578322  Biso 1.0 B
B24 1.0000000000 0.2500000000 0.7502570470 0.3265578322  Biso 1.0 B
B25 1.0000000000 0.2500000000 0.2695043138 0.4180559013  Biso 1.0 B
B26 1.0000000000 0.7500000000 0.2304956862 0.9180559013  Biso 1.0 B
B27 1.0000000000 0.7500000000 0.7304956862 0.5819440987  Biso 1.0 B
B28 1.0000000000 0.2500000000 0.7695043138 0.0819440987  Biso 1.0 B
Mo29 1.0000000000 0.2500000000 0.1846661564 0.7977823676  Biso 1.0 Mo
Mo30 1.0000000000 0.7500000000 0.3153338436 0.2977823676  Biso 1.0 Mo
Mo31 1.0000000000 0.7500000000 0.8153338436 0.2022176324  Biso 1.0 Mo
Mo32 1.0000000000 0.2500000000 0.6846661564 0.7022176324  Biso 1.0 Mo
Mo33 1.0000000000 0.2500000000 0.1600362785 0.5638878790  Biso 1.0 Mo
Mo34 1.0000000000 0.7500000000 0.3399637215 0.0638878790  Biso 1.0 Mo
Mo35 1.0000000000 0.7500000000 0.8399637215 0.4361121210  Biso 1.0 Mo
Mo36 1.0000000000 0.2500000000 0.6600362785 0.9361121210  Biso 1.0 Mo
Mo37 1.0000000000 0.2500000000 0.1174037769 0.0270388670  Biso 1.0 Mo
Mo38 1.0000000000 0.7500000000 0.3825962231 0.5270388670  Biso 1.0 Mo
Mo39 1.0000000000 0.7500000000 0.8825962231 0.9729611330  Biso 1.0 Mo
Mo40 1.0000000000 0.2500000000 0.6174037769 0.4729611330  Biso 1.0 Mo
Y41 1.0000000000 0.2500000000 0.0512138835 0.3082033499  Biso 1.0 Y
Y42 1.0000000000 0.7500000000 0.4487861165 0.8082033499  Biso 1.0 Y
Y43 1.0000000000 0.7500000000 0.9487861165 0.6917966501  Biso 1.0 Y
Y44 1.0000000000 0.2500000000 0.5512138835 0.1917966501  Biso 1.0 Y
