# AFLOW.org Repositories
# B7Re1Y3   [ORCC,ORCC,oS44] (STD_PRIM doi
data_B7Re1Y3
_pd_phase_name B7Re1Y3
_cell_length_a  8.1028019029
_cell_length_b  8.1028019029
_cell_length_c  9.3659463957
_cell_angle_alpha  90.0000000000
_cell_angle_beta  90.0000000000
_cell_angle_gamma  154.6556024594
_symmetry_space_group_name_H-M  'P1'
_symmetry_Int_Tables_Number  1
loop_
_symmetry_equiv_pos_site_id
_symmetry_equiv_pos_as_xyz
  1  x,y,z
loop_
 _atom_site_label
 _atom_site_occupancy
 _atom_site_fract_x
 _atom_site_fract_y
 _atom_site_fract_z
 _atom_site_thermal_displace_type
 _atom_site_B_iso_or_equiv
 _atom_site_type_symbol
B1 1.0000000000 0.2731417169 0.7268582831 0.9662725276  Biso 1.0 B
B2 1.0000000000 0.7268582831 0.2731417169 0.4662725276  Biso 1.0 B
B3 1.0000000000 0.2731417169 0.7268582831 0.5337274724  Biso 1.0 B
B4 1.0000000000 0.7268582831 0.2731417169 0.0337274724  Biso 1.0 B
B5 1.0000000000 0.3679980171 0.6320019829 0.6507220337  Biso 1.0 B
B6 1.0000000000 0.6320019829 0.3679980171 0.1507220337  Biso 1.0 B
B7 1.0000000000 0.3679980171 0.6320019829 0.8492779663  Biso 1.0 B
B8 1.0000000000 0.6320019829 0.3679980171 0.3492779663  Biso 1.0 B
B9 1.0000000000 0.4792348552 0.5207651448 0.5954958341  Biso 1.0 B
B10 1.0000000000 0.5207651448 0.4792348552 0.0954958341  Biso 1.0 B
B11 1.0000000000 0.4792348552 0.5207651448 0.9045041659  Biso 1.0 B
B12 1.0000000000 0.5207651448 0.4792348552 0.4045041659  Biso 1.0 B
B13 1.0000000000 0.5421920266 0.4578079734 0.7500000000  Biso 1.0 B
B14 1.0000000000 0.4578079734 0.5421920266 0.2500000000  Biso 1.0 B
Re15 1.0000000000 0.9467951635 0.0532048365 0.7500000000  Biso 1.0 Re
Re16 1.0000000000 0.0532048365 0.9467951635 0.2500000000  Biso 1.0 Re
Y17 1.0000000000 0.1050126154 0.8949873846 0.9403541191  Biso 1.0 Y
Y18 1.0000000000 0.8949873846 0.1050126154 0.4403541191  Biso 1.0 Y
Y19 1.0000000000 0.1050126154 0.8949873846 0.5596458809  Biso 1.0 Y
Y20 1.0000000000 0.8949873846 0.1050126154 0.0596458809  Biso 1.0 Y
Y21 1.0000000000 0.7580605354 0.2419394646 0.7500000000  Biso 1.0 Y
Y22 1.0000000000 0.2419394646 0.7580605354 0.2500000000  Biso 1.0 Y
