# AFLOW.org Repositories
# Ba1Bi1Na1   [HEX,HEX,hP9] (STD_PRIM doi:
data_Ba1Bi1Na1
_pd_phase_name Ba1Bi1Na1
_cell_length_a  8.6941826277
_cell_length_b  8.6941826277
_cell_length_c  5.1679991842
_cell_angle_alpha  90.0000000000
_cell_angle_beta  90.0000000000
_cell_angle_gamma  120.0000000000
_symmetry_space_group_name_H-M  'P1'
_symmetry_Int_Tables_Number  1
loop_
_symmetry_equiv_pos_site_id
_symmetry_equiv_pos_as_xyz
  1  x,y,z
loop_
 _atom_site_label
 _atom_site_occupancy
 _atom_site_fract_x
 _atom_site_fract_y
 _atom_site_fract_z
 _atom_site_thermal_displace_type
 _atom_site_B_iso_or_equiv
 _atom_site_type_symbol
Ba1 1.0000000000 0.0000000000 0.5810203243 0.0000000000  Biso 1.0 Ba
Ba2 1.0000000000 0.4189796757 0.4189796757 0.0000000000  Biso 1.0 Ba
Ba3 1.0000000000 0.5810179079 0.0000000000 0.0000000000  Biso 1.0 Ba
Bi4 1.0000000000 0.3333179022 0.6666325891 0.5000000000  Biso 1.0 Bi
Bi5 1.0000000000 0.6666853131 0.3333674109 0.5000000000  Biso 1.0 Bi
Bi6 1.0000000000 0.0000000000 0.0000000000 0.0000000000  Biso 1.0 Bi
Na7 1.0000000000 0.2407375776 0.0000000000 0.5000000000  Biso 1.0 Na
Na8 1.0000000000 0.0000000000 0.2407358006 0.5000000000  Biso 1.0 Na
Na9 1.0000000000 0.7592641994 0.7592641994 0.5000000000  Biso 1.0 Na
