# AFLOW.org Repositories
# Ba1Be2N2   [BCT,BCT2,tI20] (STD_PRIM doi
data_Ba1Be2N2
_pd_phase_name Ba1Be2N2
_cell_length_a  5.8498511801
_cell_length_b  5.8498511801
_cell_length_c  5.8498511801
_cell_angle_alpha  121.9735916502
_cell_angle_beta  121.9735916502
_cell_angle_gamma  86.6143324422
_symmetry_space_group_name_H-M  'P1'
_symmetry_Int_Tables_Number  1
loop_
_symmetry_equiv_pos_site_id
_symmetry_equiv_pos_as_xyz
  1  x,y,z
loop_
 _atom_site_label
 _atom_site_occupancy
 _atom_site_fract_x
 _atom_site_fract_y
 _atom_site_fract_z
 _atom_site_thermal_displace_type
 _atom_site_B_iso_or_equiv
 _atom_site_type_symbol
Ba1 1.0000000000 0.2500000000 0.2500000000 0.0000000000  Biso 1.0 Ba
Ba2 1.0000000000 0.7500000000 0.7500000000 0.0000000000  Biso 1.0 Ba
Be3 1.0000000000 0.6287462738 0.8712537262 0.5000000000  Biso 1.0 Be
Be4 1.0000000000 0.3712537262 0.1287462738 0.5000000000  Biso 1.0 Be
Be5 1.0000000000 0.8712537262 0.3712537262 0.2425074525  Biso 1.0 Be
Be6 1.0000000000 0.1287462738 0.6287462738 0.7574925475  Biso 1.0 Be
N7 1.0000000000 0.1660842475 0.3339157525 0.5000000000  Biso 1.0 N
N8 1.0000000000 0.8339157525 0.6660842475 0.5000000000  Biso 1.0 N
N9 1.0000000000 0.3339157525 0.8339157525 0.1678315049  Biso 1.0 N
N10 1.0000000000 0.6660842475 0.1660842475 0.8321684951  Biso 1.0 N
