# AFLOW.org Repositories
# Ba1Cu2Te2   [ORC,ORC,oP20] (STD_PRIM doi
data_Ba1Cu2Te2
_pd_phase_name Ba1Cu2Te2
_cell_length_a  4.4812759223
_cell_length_b  10.1957823433
_cell_length_c  11.5660071021
_cell_angle_alpha  90.0000000000
_cell_angle_beta  90.0000000000
_cell_angle_gamma  90.0000000000
_symmetry_space_group_name_H-M  'P1'
_symmetry_Int_Tables_Number  1
loop_
_symmetry_equiv_pos_site_id
_symmetry_equiv_pos_as_xyz
  1  x,y,z
loop_
 _atom_site_label
 _atom_site_occupancy
 _atom_site_fract_x
 _atom_site_fract_y
 _atom_site_fract_z
 _atom_site_thermal_displace_type
 _atom_site_B_iso_or_equiv
 _atom_site_type_symbol
Ba1 1.0000000000 0.7500000000 0.2591893192 0.6785338331  Biso 1.0 Ba
Ba2 1.0000000000 0.2500000000 0.2408106808 0.1785338331  Biso 1.0 Ba
Ba3 1.0000000000 0.2500000000 0.7408106808 0.3214661669  Biso 1.0 Ba
Ba4 1.0000000000 0.7500000000 0.7591893192 0.8214661669  Biso 1.0 Ba
Cu5 1.0000000000 0.2500000000 0.0560867228 0.8893969397  Biso 1.0 Cu
Cu6 1.0000000000 0.7500000000 0.4439132772 0.3893969397  Biso 1.0 Cu
Cu7 1.0000000000 0.7500000000 0.9439132772 0.1106030603  Biso 1.0 Cu
Cu8 1.0000000000 0.2500000000 0.5560867228 0.6106030603  Biso 1.0 Cu
Cu9 1.0000000000 0.7500000000 0.4257138062 0.9549422471  Biso 1.0 Cu
Cu10 1.0000000000 0.2500000000 0.0742861938 0.4549422471  Biso 1.0 Cu
Cu11 1.0000000000 0.2500000000 0.5742861938 0.0450577529  Biso 1.0 Cu
Cu12 1.0000000000 0.7500000000 0.9257138062 0.5450577529  Biso 1.0 Cu
Te13 1.0000000000 0.2500000000 0.4794220123 0.8296295958  Biso 1.0 Te
Te14 1.0000000000 0.7500000000 0.0205779877 0.3296295958  Biso 1.0 Te
Te15 1.0000000000 0.7500000000 0.5205779877 0.1703704042  Biso 1.0 Te
Te16 1.0000000000 0.2500000000 0.9794220123 0.6703704042  Biso 1.0 Te
Te17 1.0000000000 0.7500000000 0.1619048876 0.9626518566  Biso 1.0 Te
Te18 1.0000000000 0.2500000000 0.3380951124 0.4626518566  Biso 1.0 Te
Te19 1.0000000000 0.2500000000 0.8380951124 0.0373481434  Biso 1.0 Te
Te20 1.0000000000 0.7500000000 0.6619048876 0.5373481434  Biso 1.0 Te
