# AFLOW.org Repositories
# Ba1Cu3O4   [ORCC,ORCC,oS16] (STD_PRIM do
data_Ba1Cu3O4
_pd_phase_name Ba1Cu3O4
_cell_length_a  6.2107582518
_cell_length_b  6.2107582518
_cell_length_c  3.9936183630
_cell_angle_alpha  90.0000000000
_cell_angle_beta  90.0000000000
_cell_angle_gamma  126.6840158440
_symmetry_space_group_name_H-M  'P1'
_symmetry_Int_Tables_Number  1
loop_
_symmetry_equiv_pos_site_id
_symmetry_equiv_pos_as_xyz
  1  x,y,z
loop_
 _atom_site_label
 _atom_site_occupancy
 _atom_site_fract_x
 _atom_site_fract_y
 _atom_site_fract_z
 _atom_site_thermal_displace_type
 _atom_site_B_iso_or_equiv
 _atom_site_type_symbol
Ba1 1.0000000000 0.0000000000 0.0000000000 0.5000000000  Biso 1.0 Ba
Cu2 1.0000000000 0.5000000000 0.5000000000 0.0000000000  Biso 1.0 Cu
Cu3 1.0000000000 0.2476715132 0.7523284868 0.0000000000  Biso 1.0 Cu
Cu4 1.0000000000 0.7523284868 0.2476715132 0.0000000000  Biso 1.0 Cu
O5 1.0000000000 0.3849304119 0.1295266494 0.0000000000  Biso 1.0 O
O6 1.0000000000 0.6150695881 0.8704733506 0.0000000000  Biso 1.0 O
O7 1.0000000000 0.1295266494 0.3849304119 0.0000000000  Biso 1.0 O
O8 1.0000000000 0.8704733506 0.6150695881 0.0000000000  Biso 1.0 O
