# AFLOW.org Repositories
# Ba1Ce1N2   [HEX,HEX,hP8] (STD_PRIM doi:1
data_Ba1Ce1N2
_pd_phase_name Ba1Ce1N2
_cell_length_a  3.6933541368
_cell_length_b  3.6933541368
_cell_length_c  12.7747494432
_cell_angle_alpha  90.0000000000
_cell_angle_beta  90.0000000000
_cell_angle_gamma  120.0000000000
_symmetry_space_group_name_H-M  'P1'
_symmetry_Int_Tables_Number  1
loop_
_symmetry_equiv_pos_site_id
_symmetry_equiv_pos_as_xyz
  1  x,y,z
loop_
 _atom_site_label
 _atom_site_occupancy
 _atom_site_fract_x
 _atom_site_fract_y
 _atom_site_fract_z
 _atom_site_thermal_displace_type
 _atom_site_B_iso_or_equiv
 _atom_site_type_symbol
Ba1 1.0000000000 0.6666841572 0.3333158428 0.2500000000  Biso 1.0 Ba
Ba2 1.0000000000 0.3333158428 0.6666841572 0.7500000000  Biso 1.0 Ba
Ce3 1.0000000000 0.0000000000 0.0000000000 0.0000000000  Biso 1.0 Ce
Ce4 1.0000000000 0.0000000000 0.0000000000 0.5000000000  Biso 1.0 Ce
N5 1.0000000000 0.3333160437 0.6666839563 0.0967648061  Biso 1.0 N
N6 1.0000000000 0.6666839563 0.3333160437 0.5967648061  Biso 1.0 N
N7 1.0000000000 0.6666839563 0.3333160437 0.9032351939  Biso 1.0 N
N8 1.0000000000 0.3333160437 0.6666839563 0.4032351939  Biso 1.0 N
