# AFLOW.org Repositories
# Ba1C4O4   [BCT,BCT2,tI36] (STD_PRIM doi:
data_Ba1C4O4
_pd_phase_name Ba1C4O4
_cell_length_a  7.7592160973
_cell_length_b  7.7592160973
_cell_length_c  7.7592160973
_cell_angle_alpha  130.8363482655
_cell_angle_beta  130.8363482655
_cell_angle_gamma  72.0732165710
_symmetry_space_group_name_H-M  'P1'
_symmetry_Int_Tables_Number  1
loop_
_symmetry_equiv_pos_site_id
_symmetry_equiv_pos_as_xyz
  1  x,y,z
loop_
 _atom_site_label
 _atom_site_occupancy
 _atom_site_fract_x
 _atom_site_fract_y
 _atom_site_fract_z
 _atom_site_thermal_displace_type
 _atom_site_B_iso_or_equiv
 _atom_site_type_symbol
Ba1 1.0000000000 0.2500000000 0.2500000000 0.0000000000  Biso 1.0 Ba
Ba2 1.0000000000 0.7500000000 0.7500000000 0.0000000000  Biso 1.0 Ba
C3 1.0000000000 0.9781116632 0.4781116632 0.3388393814  Biso 1.0 C
C4 1.0000000000 0.1392722818 0.6392722818 0.6611606186  Biso 1.0 C
C5 1.0000000000 0.4781116632 0.1392722818 0.5000000000  Biso 1.0 C
C6 1.0000000000 0.6392722818 0.9781116632 0.5000000000  Biso 1.0 C
C7 1.0000000000 0.5218883368 0.8607277182 0.5000000000  Biso 1.0 C
C8 1.0000000000 0.3607277182 0.0218883368 0.5000000000  Biso 1.0 C
C9 1.0000000000 0.0218883368 0.5218883368 0.6611606186  Biso 1.0 C
C10 1.0000000000 0.8607277182 0.3607277182 0.3388393814  Biso 1.0 C
O11 1.0000000000 0.9524256299 0.4524256299 0.1437344306  Biso 1.0 O
O12 1.0000000000 0.3086911993 0.8086911993 0.8562655694  Biso 1.0 O
O13 1.0000000000 0.4524256299 0.3086911993 0.5000000000  Biso 1.0 O
O14 1.0000000000 0.8086911993 0.9524256299 0.5000000000  Biso 1.0 O
O15 1.0000000000 0.5475743701 0.6913088007 0.5000000000  Biso 1.0 O
O16 1.0000000000 0.1913088007 0.0475743701 0.5000000000  Biso 1.0 O
O17 1.0000000000 0.0475743701 0.5475743701 0.8562655694  Biso 1.0 O
O18 1.0000000000 0.6913088007 0.1913088007 0.1437344306  Biso 1.0 O
