# AFLOW.org Repositories
# Ba1Cr1S2   [ORC,ORC,oP8] (STD_PRIM doi:1
data_Ba1Cr1S2
_pd_phase_name Ba1Cr1S2
_cell_length_a  4.3526546628
_cell_length_b  4.8614535821
_cell_length_c  9.5965331291
_cell_angle_alpha  90.0000000000
_cell_angle_beta  90.0000000000
_cell_angle_gamma  90.0000000000
_symmetry_space_group_name_H-M  'P1'
_symmetry_Int_Tables_Number  1
loop_
_symmetry_equiv_pos_site_id
_symmetry_equiv_pos_as_xyz
  1  x,y,z
loop_
 _atom_site_label
 _atom_site_occupancy
 _atom_site_fract_x
 _atom_site_fract_y
 _atom_site_fract_z
 _atom_site_thermal_displace_type
 _atom_site_B_iso_or_equiv
 _atom_site_type_symbol
Ba1 1.0000000000 0.2500000000 0.7500000000 0.3226071146  Biso 1.0 Ba
Ba2 1.0000000000 0.7500000000 0.2500000000 0.6773928854  Biso 1.0 Ba
Cr3 1.0000000000 0.7500000000 0.2500000000 0.0944255943  Biso 1.0 Cr
Cr4 1.0000000000 0.2500000000 0.7500000000 0.9055744057  Biso 1.0 Cr
S5 1.0000000000 0.7500000000 0.7500000000 0.0544491169  Biso 1.0 S
S6 1.0000000000 0.2500000000 0.2500000000 0.9455508831  Biso 1.0 S
S7 1.0000000000 0.7500000000 0.2500000000 0.3512381698  Biso 1.0 S
S8 1.0000000000 0.2500000000 0.7500000000 0.6487618302  Biso 1.0 S
