# AFLOW.org Repositories
# Ba1F4Ni1   [ORCC,ORCC,oS24] (STD_PRIM do
data_Ba1F4Ni1
_pd_phase_name Ba1F4Ni1
_cell_length_a  7.6902388401
_cell_length_b  7.6902388401
_cell_length_c  5.8953617427
_cell_angle_alpha  90.0000000000
_cell_angle_beta  90.0000000000
_cell_angle_gamma  148.2858082407
_symmetry_space_group_name_H-M  'P1'
_symmetry_Int_Tables_Number  1
loop_
_symmetry_equiv_pos_site_id
_symmetry_equiv_pos_as_xyz
  1  x,y,z
loop_
 _atom_site_label
 _atom_site_occupancy
 _atom_site_fract_x
 _atom_site_fract_y
 _atom_site_fract_z
 _atom_site_thermal_displace_type
 _atom_site_B_iso_or_equiv
 _atom_site_type_symbol
Ba1 1.0000000000 0.8525812066 0.1474187934 0.0396205859  Biso 1.0 Ba
Ba2 1.0000000000 0.1474187934 0.8525812066 0.5396205859  Biso 1.0 Ba
F3 1.0000000000 0.5282599239 0.4717400761 0.6781480039  Biso 1.0 F
F4 1.0000000000 0.4717400761 0.5282599239 0.1781480039  Biso 1.0 F
F5 1.0000000000 0.6976195099 0.3023804901 0.8047631745  Biso 1.0 F
F6 1.0000000000 0.3023804901 0.6976195099 0.3047631745  Biso 1.0 F
F7 1.0000000000 0.6642032288 0.3357967712 0.2699304847  Biso 1.0 F
F8 1.0000000000 0.3357967712 0.6642032288 0.7699304847  Biso 1.0 F
F9 1.0000000000 0.0797777439 0.9202222561 0.9904494080  Biso 1.0 F
F10 1.0000000000 0.9202222561 0.0797777439 0.4904494080  Biso 1.0 F
Ni11 1.0000000000 0.5863482767 0.4136517233 0.9980883430  Biso 1.0 Ni
Ni12 1.0000000000 0.4136517233 0.5863482767 0.4980883430  Biso 1.0 Ni
