# AFLOW.org Repositories
# Ba1Ga2Se4   [ORCC,ORCC,oS28] (STD_PRIM d
data_Ba1Ga2Se4
_pd_phase_name Ba1Ga2Se4
_cell_length_a  6.5453624286
_cell_length_b  6.5453624286
_cell_length_c  11.5844710932
_cell_angle_alpha  90.0000000000
_cell_angle_beta  90.0000000000
_cell_angle_gamma  121.9561993636
_symmetry_space_group_name_H-M  'P1'
_symmetry_Int_Tables_Number  1
loop_
_symmetry_equiv_pos_site_id
_symmetry_equiv_pos_as_xyz
  1  x,y,z
loop_
 _atom_site_label
 _atom_site_occupancy
 _atom_site_fract_x
 _atom_site_fract_y
 _atom_site_fract_z
 _atom_site_thermal_displace_type
 _atom_site_B_iso_or_equiv
 _atom_site_type_symbol
Ba1 1.0000000000 0.5000000000 0.5000000000 0.2500000000  Biso 1.0 Ba
Ba2 1.0000000000 0.5000000000 0.5000000000 0.7500000000  Biso 1.0 Ba
Ga3 1.0000000000 0.7581902071 0.2404454039 0.0000000000  Biso 1.0 Ga
Ga4 1.0000000000 0.2418097929 0.7595545961 0.0000000000  Biso 1.0 Ga
Ga5 1.0000000000 0.7595545961 0.2418097929 0.5000000000  Biso 1.0 Ga
Ga6 1.0000000000 0.2404454039 0.7581902071 0.5000000000  Biso 1.0 Ga
Se7 1.0000000000 0.8235889151 0.6490378833 0.0000000000  Biso 1.0 Se
Se8 1.0000000000 0.1764110849 0.3509621167 0.0000000000  Biso 1.0 Se
Se9 1.0000000000 0.3509621167 0.1764110849 0.5000000000  Biso 1.0 Se
Se10 1.0000000000 0.6490378833 0.8235889151 0.5000000000  Biso 1.0 Se
Se11 1.0000000000 0.0000000000 0.5000000000 0.3385400915  Biso 1.0 Se
Se12 1.0000000000 0.5000000000 0.0000000000 0.1614599085  Biso 1.0 Se
Se13 1.0000000000 0.0000000000 0.5000000000 0.6614599085  Biso 1.0 Se
Se14 1.0000000000 0.5000000000 0.0000000000 0.8385400915  Biso 1.0 Se
