# AFLOW.org Repositories
# Ba1Ge2P2   [TET,TET,tP20] (STD_PRIM doi:
data_Ba1Ge2P2
_pd_phase_name Ba1Ge2P2
_cell_length_a  7.7099651569
_cell_length_b  7.7099651569
_cell_length_c  8.6028671769
_cell_angle_alpha  90.0000000000
_cell_angle_beta  90.0000000000
_cell_angle_gamma  90.0000000000
_symmetry_space_group_name_H-M  'P1'
_symmetry_Int_Tables_Number  1
loop_
_symmetry_equiv_pos_site_id
_symmetry_equiv_pos_as_xyz
  1  x,y,z
loop_
 _atom_site_label
 _atom_site_occupancy
 _atom_site_fract_x
 _atom_site_fract_y
 _atom_site_fract_z
 _atom_site_thermal_displace_type
 _atom_site_B_iso_or_equiv
 _atom_site_type_symbol
Ba1 1.0000000000 0.0000000000 0.0000000000 0.0000000000  Biso 1.0 Ba
Ba2 1.0000000000 0.0000000000 0.0000000000 0.4990860112  Biso 1.0 Ba
Ba3 1.0000000000 0.5000000000 0.0000000000 0.0276790243  Biso 1.0 Ba
Ba4 1.0000000000 0.0000000000 0.5000000000 0.5276790243  Biso 1.0 Ba
Ge5 1.0000000000 0.3313101046 0.5000000000 0.8643974096  Biso 1.0 Ge
Ge6 1.0000000000 0.6686898954 0.5000000000 0.8643974096  Biso 1.0 Ge
Ge7 1.0000000000 0.5000000000 0.3313101046 0.3643974096  Biso 1.0 Ge
Ge8 1.0000000000 0.5000000000 0.6686898954 0.3643974096  Biso 1.0 Ge
Ge9 1.0000000000 0.5000000000 0.1668188099 0.6150016430  Biso 1.0 Ge
Ge10 1.0000000000 0.5000000000 0.8331811901 0.6150016430  Biso 1.0 Ge
Ge11 1.0000000000 0.8331811901 0.5000000000 0.1150016430  Biso 1.0 Ge
Ge12 1.0000000000 0.1668188099 0.5000000000 0.1150016430  Biso 1.0 Ge
P13 1.0000000000 0.2326136756 0.2486754541 0.2567092148  Biso 1.0 P
P14 1.0000000000 0.7673863244 0.7513245459 0.2567092148  Biso 1.0 P
P15 1.0000000000 0.7513245459 0.2326136756 0.7567092148  Biso 1.0 P
P16 1.0000000000 0.2486754541 0.7673863244 0.7567092148  Biso 1.0 P
P17 1.0000000000 0.2326136756 0.7513245459 0.2567092148  Biso 1.0 P
P18 1.0000000000 0.7673863244 0.2486754541 0.2567092148  Biso 1.0 P
P19 1.0000000000 0.7513245459 0.7673863244 0.7567092148  Biso 1.0 P
P20 1.0000000000 0.2486754541 0.2326136756 0.7567092148  Biso 1.0 P
