# AFLOW.org Repositories
# Ba1Ga4   [BCT,BCT2,tI10] (STD_PRIM doi:1
data_Ba1Ga4
_pd_phase_name Ba1Ga4
_cell_length_a  6.3327280001
_cell_length_b  6.3327280001
_cell_length_c  6.3327280001
_cell_angle_alpha  137.3582299926
_cell_angle_beta  137.3582299926
_cell_angle_gamma  61.8873346778
_symmetry_space_group_name_H-M  'P1'
_symmetry_Int_Tables_Number  1
loop_
_symmetry_equiv_pos_site_id
_symmetry_equiv_pos_as_xyz
  1  x,y,z
loop_
 _atom_site_label
 _atom_site_occupancy
 _atom_site_fract_x
 _atom_site_fract_y
 _atom_site_fract_z
 _atom_site_thermal_displace_type
 _atom_site_B_iso_or_equiv
 _atom_site_type_symbol
Ba1 1.0000000000 0.0000000000 0.0000000000 0.0000000000  Biso 1.0 Ba
Ga2 1.0000000000 0.7500000000 0.2500000000 0.5000000000  Biso 1.0 Ga
Ga3 1.0000000000 0.2500000000 0.7500000000 0.5000000000  Biso 1.0 Ga
Ga4 1.0000000000 0.3794546104 0.3794546104 0.0000000000  Biso 1.0 Ga
Ga5 1.0000000000 0.6205453896 0.6205453896 0.0000000000  Biso 1.0 Ga
