# AFLOW.org Repositories
# Ba1Ge1Pt1   [CUB,CUB,cP12] (STD_PRIM doi
data_Ba1Ge1Pt1
_pd_phase_name Ba1Ge1Pt1
_cell_length_a  6.8316680566
_cell_length_b  6.8316680566
_cell_length_c  6.8316680566
_cell_angle_alpha  90.0000000000
_cell_angle_beta  90.0000000000
_cell_angle_gamma  90.0000000000
_symmetry_space_group_name_H-M  'P1'
_symmetry_Int_Tables_Number  1
loop_
_symmetry_equiv_pos_site_id
_symmetry_equiv_pos_as_xyz
  1  x,y,z
loop_
 _atom_site_label
 _atom_site_occupancy
 _atom_site_fract_x
 _atom_site_fract_y
 _atom_site_fract_z
 _atom_site_thermal_displace_type
 _atom_site_B_iso_or_equiv
 _atom_site_type_symbol
Ba1 1.0000000000 0.8623906707 0.8623906707 0.1376093293  Biso 1.0 Ba
Ba2 1.0000000000 0.6376093293 0.1376093293 0.6376093293  Biso 1.0 Ba
Ba3 1.0000000000 0.1376093293 0.3623906707 0.3623906707  Biso 1.0 Ba
Ba4 1.0000000000 0.3623906707 0.6376093293 0.8623906707  Biso 1.0 Ba
Ge5 1.0000000000 0.1568473963 0.1568473963 0.8431526037  Biso 1.0 Ge
Ge6 1.0000000000 0.3431526037 0.8431526037 0.3431526037  Biso 1.0 Ge
Ge7 1.0000000000 0.8431526037 0.6568473963 0.6568473963  Biso 1.0 Ge
Ge8 1.0000000000 0.6568473963 0.3431526037 0.1568473963  Biso 1.0 Ge
Pt9 1.0000000000 0.5899841727 0.5899841727 0.4100158273  Biso 1.0 Pt
Pt10 1.0000000000 0.9100158273 0.4100158273 0.9100158273  Biso 1.0 Pt
Pt11 1.0000000000 0.4100158273 0.0899841727 0.0899841727  Biso 1.0 Pt
Pt12 1.0000000000 0.0899841727 0.9100158273 0.5899841727  Biso 1.0 Pt
