# AFLOW.org Repositories
# Ba1Hg1S2   [ORC,ORC,oP16] (STD_PRIM doi:
data_Ba1Hg1S2
_pd_phase_name Ba1Hg1S2
_cell_length_a  4.2931039188
_cell_length_b  7.4536587632
_cell_length_c  14.6290585889
_cell_angle_alpha  90.0000000000
_cell_angle_beta  90.0000000000
_cell_angle_gamma  90.0000000000
_symmetry_space_group_name_H-M  'P1'
_symmetry_Int_Tables_Number  1
loop_
_symmetry_equiv_pos_site_id
_symmetry_equiv_pos_as_xyz
  1  x,y,z
loop_
 _atom_site_label
 _atom_site_occupancy
 _atom_site_fract_x
 _atom_site_fract_y
 _atom_site_fract_z
 _atom_site_thermal_displace_type
 _atom_site_B_iso_or_equiv
 _atom_site_type_symbol
Ba1 1.0000000000 0.0000000000 0.8206787658 0.3902462953  Biso 1.0 Ba
Ba2 1.0000000000 0.0000000000 0.3206787658 0.6097537047  Biso 1.0 Ba
Ba3 1.0000000000 0.0000000000 0.4964845573 0.1015451111  Biso 1.0 Ba
Ba4 1.0000000000 0.0000000000 0.9964845573 0.8984548889  Biso 1.0 Ba
Hg5 1.0000000000 0.5000000000 0.3348016925 0.3525489559  Biso 1.0 Hg
Hg6 1.0000000000 0.5000000000 0.8348016925 0.6474510441  Biso 1.0 Hg
Hg7 1.0000000000 0.5000000000 0.0000000000 0.1410391340  Biso 1.0 Hg
Hg8 1.0000000000 0.5000000000 0.5004646771 0.8589608660  Biso 1.0 Hg
S9 1.0000000000 0.5000000000 0.2711144427 0.9840958293  Biso 1.0 S
S10 1.0000000000 0.5000000000 0.7711144427 0.0159041707  Biso 1.0 S
S11 1.0000000000 0.5000000000 0.1011510933 0.7369004074  Biso 1.0 S
S12 1.0000000000 0.5000000000 0.6011510933 0.2630995926  Biso 1.0 S
S13 1.0000000000 0.0000000000 0.6078641722 0.7783577848  Biso 1.0 S
S14 1.0000000000 0.0000000000 0.1078641722 0.2216422152  Biso 1.0 S
S15 1.0000000000 0.5000000000 0.1110405992 0.4686088209  Biso 1.0 S
S16 1.0000000000 0.5000000000 0.6110405992 0.5313911791  Biso 1.0 S
