# AFLOW.org Repositories
# Ba1Hf1N2   [TET,TET,tP8] (STD_PRIM doi:1
data_Ba1Hf1N2
_pd_phase_name Ba1Hf1N2
_cell_length_a  4.1521488660
_cell_length_b  4.1521488660
_cell_length_c  8.4763105270
_cell_angle_alpha  90.0000000000
_cell_angle_beta  90.0000000000
_cell_angle_gamma  90.0000000000
_symmetry_space_group_name_H-M  'P1'
_symmetry_Int_Tables_Number  1
loop_
_symmetry_equiv_pos_site_id
_symmetry_equiv_pos_as_xyz
  1  x,y,z
loop_
 _atom_site_label
 _atom_site_occupancy
 _atom_site_fract_x
 _atom_site_fract_y
 _atom_site_fract_z
 _atom_site_thermal_displace_type
 _atom_site_B_iso_or_equiv
 _atom_site_type_symbol
Ba1 1.0000000000 0.2500000000 0.2500000000 0.8477349258  Biso 1.0 Ba
Ba2 1.0000000000 0.7500000000 0.7500000000 0.1522650742  Biso 1.0 Ba
Hf3 1.0000000000 0.2500000000 0.2500000000 0.4151597904  Biso 1.0 Hf
Hf4 1.0000000000 0.7500000000 0.7500000000 0.5848402096  Biso 1.0 Hf
N5 1.0000000000 0.7500000000 0.2500000000 0.5000000000  Biso 1.0 N
N6 1.0000000000 0.2500000000 0.7500000000 0.5000000000  Biso 1.0 N
N7 1.0000000000 0.2500000000 0.2500000000 0.1802460632  Biso 1.0 N
N8 1.0000000000 0.7500000000 0.7500000000 0.8197539368  Biso 1.0 N
