# AFLOW.org Repositories
# Ba1In2   [ORCI,ORCI,oI12] (STD_PRIM doi:
data_Ba1In2
_pd_phase_name Ba1In2
_cell_length_a  6.6806571290
_cell_length_b  6.6806571290
_cell_length_c  6.6806571290
_cell_angle_alpha  133.1965257339
_cell_angle_beta  99.2689621779
_cell_angle_gamma  98.8836174071
_symmetry_space_group_name_H-M  'P1'
_symmetry_Int_Tables_Number  1
loop_
_symmetry_equiv_pos_site_id
_symmetry_equiv_pos_as_xyz
  1  x,y,z
loop_
 _atom_site_label
 _atom_site_occupancy
 _atom_site_fract_x
 _atom_site_fract_y
 _atom_site_fract_z
 _atom_site_thermal_displace_type
 _atom_site_B_iso_or_equiv
 _atom_site_type_symbol
Ba1 1.0000000000 0.1998959229 0.4498959229 0.7500000000  Biso 1.0 Ba
Ba2 1.0000000000 0.8001040771 0.5501040771 0.2500000000  Biso 1.0 Ba
In3 1.0000000000 0.7711128665 0.8388344717 0.9322783948  Biso 1.0 In
In4 1.0000000000 0.4065560769 0.8388344717 0.5677216052  Biso 1.0 In
In5 1.0000000000 0.5934439231 0.1611655283 0.4322783948  Biso 1.0 In
In6 1.0000000000 0.2288871335 0.1611655283 0.0677216052  Biso 1.0 In
