# AFLOW.org Repositories
# Ba1Mo3Se3   [HEX,HEX,hP14] (STD_PRIM doi
data_Ba1Mo3Se3
_pd_phase_name Ba1Mo3Se3
_cell_length_a  9.0677014219
_cell_length_b  9.0677014219
_cell_length_c  4.5457967216
_cell_angle_alpha  90.0000000000
_cell_angle_beta  90.0000000000
_cell_angle_gamma  120.0000000000
_symmetry_space_group_name_H-M  'P1'
_symmetry_Int_Tables_Number  1
loop_
_symmetry_equiv_pos_site_id
_symmetry_equiv_pos_as_xyz
  1  x,y,z
loop_
 _atom_site_label
 _atom_site_occupancy
 _atom_site_fract_x
 _atom_site_fract_y
 _atom_site_fract_z
 _atom_site_thermal_displace_type
 _atom_site_B_iso_or_equiv
 _atom_site_type_symbol
Ba1 1.0000000000 0.3333341960 0.6666387199 0.2500000000  Biso 1.0 Ba
Ba2 1.0000000000 0.6666658040 0.3333612801 0.7500000000  Biso 1.0 Ba
Mo3 1.0000000000 0.1509078638 0.9676646262 0.2500000000  Biso 1.0 Mo
Mo4 1.0000000000 0.0323615913 0.1832623380 0.2500000000  Biso 1.0 Mo
Mo5 1.0000000000 0.8166957911 0.8490599053 0.2500000000  Biso 1.0 Mo
Mo6 1.0000000000 0.8490921362 0.0323353738 0.7500000000  Biso 1.0 Mo
Mo7 1.0000000000 0.9676384087 0.8167376620 0.7500000000  Biso 1.0 Mo
Mo8 1.0000000000 0.1833042089 0.1509400947 0.7500000000  Biso 1.0 Mo
Se9 1.0000000000 0.3732467011 0.3071178512 0.2500000000  Biso 1.0 Se
Se10 1.0000000000 0.6929054078 0.0660976484 0.2500000000  Biso 1.0 Se
Se11 1.0000000000 0.9338641609 0.6267988958 0.2500000000  Biso 1.0 Se
Se12 1.0000000000 0.6267532989 0.6928821488 0.7500000000  Biso 1.0 Se
Se13 1.0000000000 0.3070945922 0.9339023516 0.7500000000  Biso 1.0 Se
Se14 1.0000000000 0.0661358391 0.3732011042 0.7500000000  Biso 1.0 Se
