# AFLOW.org Repositories
# Ba1Mn1O3   [HEX,HEX,hP20] (STD_PRIM doi:
data_Ba1Mn1O3
_pd_phase_name Ba1Mn1O3
_cell_length_a  5.7453023253
_cell_length_b  5.7453023253
_cell_length_c  9.4263134311
_cell_angle_alpha  90.0000000000
_cell_angle_beta  90.0000000000
_cell_angle_gamma  120.0000000000
_symmetry_space_group_name_H-M  'P1'
_symmetry_Int_Tables_Number  1
loop_
_symmetry_equiv_pos_site_id
_symmetry_equiv_pos_as_xyz
  1  x,y,z
loop_
 _atom_site_label
 _atom_site_occupancy
 _atom_site_fract_x
 _atom_site_fract_y
 _atom_site_fract_z
 _atom_site_thermal_displace_type
 _atom_site_B_iso_or_equiv
 _atom_site_type_symbol
Ba1 1.0000000000 0.0000000000 0.0000000000 0.0000000000  Biso 1.0 Ba
Ba2 1.0000000000 0.0000000000 0.0000000000 0.5000000000  Biso 1.0 Ba
Ba3 1.0000000000 0.6666695259 0.3333398553 0.2500000000  Biso 1.0 Ba
Ba4 1.0000000000 0.3333304741 0.6666601447 0.7500000000  Biso 1.0 Ba
Mn5 1.0000000000 0.6666635911 0.3333313169 0.6119293985  Biso 1.0 Mn
Mn6 1.0000000000 0.3333364089 0.6666686831 0.1119293985  Biso 1.0 Mn
Mn7 1.0000000000 0.3333364089 0.6666686831 0.3880706015  Biso 1.0 Mn
Mn8 1.0000000000 0.6666635911 0.3333313169 0.8880706015  Biso 1.0 Mn
O9 1.0000000000 0.0000000000 0.5000000000 0.0000000000  Biso 1.0 O
O10 1.0000000000 0.5000000000 0.5000000000 0.0000000000  Biso 1.0 O
O11 1.0000000000 0.5000000000 0.0000000000 0.0000000000  Biso 1.0 O
O12 1.0000000000 0.0000000000 0.5000000000 0.5000000000  Biso 1.0 O
O13 1.0000000000 0.5000000000 0.5000000000 0.5000000000  Biso 1.0 O
O14 1.0000000000 0.5000000000 0.0000000000 0.5000000000  Biso 1.0 O
O15 1.0000000000 0.6247620308 0.8123798979 0.2500000000  Biso 1.0 O
O16 1.0000000000 0.1876218826 0.8123846956 0.2500000000  Biso 1.0 O
O17 1.0000000000 0.1876185271 0.3752429337 0.2500000000  Biso 1.0 O
O18 1.0000000000 0.3752379692 0.1876201021 0.7500000000  Biso 1.0 O
O19 1.0000000000 0.8123781174 0.1876153044 0.7500000000  Biso 1.0 O
O20 1.0000000000 0.8123814729 0.6247570663 0.7500000000  Biso 1.0 O
