# AFLOW.org Repositories
# Ba1N2Zr1   [TET,TET,tP8] (STD_PRIM doi:1
data_Ba1N2Zr1
_pd_phase_name Ba1N2Zr1
_cell_length_a  4.2053841856
_cell_length_b  4.2053841856
_cell_length_c  8.4700082298
_cell_angle_alpha  90.0000000000
_cell_angle_beta  90.0000000000
_cell_angle_gamma  90.0000000000
_symmetry_space_group_name_H-M  'P1'
_symmetry_Int_Tables_Number  1
loop_
_symmetry_equiv_pos_site_id
_symmetry_equiv_pos_as_xyz
  1  x,y,z
loop_
 _atom_site_label
 _atom_site_occupancy
 _atom_site_fract_x
 _atom_site_fract_y
 _atom_site_fract_z
 _atom_site_thermal_displace_type
 _atom_site_B_iso_or_equiv
 _atom_site_type_symbol
Ba1 1.0000000000 0.2500000000 0.2500000000 0.8477453682  Biso 1.0 Ba
Ba2 1.0000000000 0.7500000000 0.7500000000 0.1522546318  Biso 1.0 Ba
N3 1.0000000000 0.7500000000 0.2500000000 0.5000000000  Biso 1.0 N
N4 1.0000000000 0.2500000000 0.7500000000 0.5000000000  Biso 1.0 N
N5 1.0000000000 0.2500000000 0.2500000000 0.1746997940  Biso 1.0 N
N6 1.0000000000 0.7500000000 0.7500000000 0.8253002060  Biso 1.0 N
Zr7 1.0000000000 0.2500000000 0.2500000000 0.4127896199  Biso 1.0 Zr
Zr8 1.0000000000 0.7500000000 0.7500000000 0.5872103801  Biso 1.0 Zr
