# AFLOW.org Repositories
# Ba1O6Te2   [ORCC,ORCC,oS36] (STD_PRIM do
data_Ba1O6Te2
_pd_phase_name Ba1O6Te2
_cell_length_a  7.1429650873
_cell_length_b  7.1429650873
_cell_length_c  7.4653953994
_cell_angle_alpha  90.0000000000
_cell_angle_beta  90.0000000000
_cell_angle_gamma  133.3184030142
_symmetry_space_group_name_H-M  'P1'
_symmetry_Int_Tables_Number  1
loop_
_symmetry_equiv_pos_site_id
_symmetry_equiv_pos_as_xyz
  1  x,y,z
loop_
 _atom_site_label
 _atom_site_occupancy
 _atom_site_fract_x
 _atom_site_fract_y
 _atom_site_fract_z
 _atom_site_thermal_displace_type
 _atom_site_B_iso_or_equiv
 _atom_site_type_symbol
Ba1 1.0000000000 0.7208728870 0.2791271130 0.7500000000  Biso 1.0 Ba
Ba2 1.0000000000 0.2791271130 0.7208728870 0.2500000000  Biso 1.0 Ba
O3 1.0000000000 0.0483483512 0.9516516488 0.7500000000  Biso 1.0 O
O4 1.0000000000 0.9516516488 0.0483483512 0.2500000000  Biso 1.0 O
O5 1.0000000000 0.2736161295 0.7263838705 0.7500000000  Biso 1.0 O
O6 1.0000000000 0.7263838705 0.2736161295 0.2500000000  Biso 1.0 O
O7 1.0000000000 0.6580941839 0.8685481608 0.5445596364  Biso 1.0 O
O8 1.0000000000 0.3419058161 0.1314518392 0.0445596364  Biso 1.0 O
O9 1.0000000000 0.1314518392 0.3419058161 0.9554403636  Biso 1.0 O
O10 1.0000000000 0.8685481608 0.6580941839 0.4554403636  Biso 1.0 O
O11 1.0000000000 0.3419058161 0.1314518392 0.4554403636  Biso 1.0 O
O12 1.0000000000 0.6580941839 0.8685481608 0.9554403636  Biso 1.0 O
O13 1.0000000000 0.8685481608 0.6580941839 0.0445596364  Biso 1.0 O
O14 1.0000000000 0.1314518392 0.3419058161 0.5445596364  Biso 1.0 O
Te15 1.0000000000 0.0000000000 0.0000000000 0.0000000000  Biso 1.0 Te
Te16 1.0000000000 0.0000000000 0.0000000000 0.5000000000  Biso 1.0 Te
Te17 1.0000000000 0.4147880104 0.5852119896 0.7500000000  Biso 1.0 Te
Te18 1.0000000000 0.5852119896 0.4147880104 0.2500000000  Biso 1.0 Te
