# AFLOW.org Repositories
# Ba1O7U2   [BCT,BCT2,tI40] (STD_PRIM doi:
data_Ba1O7U2
_pd_phase_name Ba1O7U2
_cell_length_a  8.0309270677
_cell_length_b  8.0309270677
_cell_length_c  8.0309270677
_cell_angle_alpha  126.4557746930
_cell_angle_beta  126.4557746930
_cell_angle_gamma  79.1403266387
_symmetry_space_group_name_H-M  'P1'
_symmetry_Int_Tables_Number  1
loop_
_symmetry_equiv_pos_site_id
_symmetry_equiv_pos_as_xyz
  1  x,y,z
loop_
 _atom_site_label
 _atom_site_occupancy
 _atom_site_fract_x
 _atom_site_fract_y
 _atom_site_fract_z
 _atom_site_thermal_displace_type
 _atom_site_B_iso_or_equiv
 _atom_site_type_symbol
Ba1 1.0000000000 0.1250000000 0.3750000000 0.2500000000  Biso 1.0 Ba
Ba2 1.0000000000 0.8750000000 0.6250000000 0.7500000000  Biso 1.0 Ba
O3 1.0000000000 0.2394493642 0.0000000000 0.2394493642  Biso 1.0 O
O4 1.0000000000 0.7605506358 0.5000000000 0.2605506358  Biso 1.0 O
O5 1.0000000000 0.5000000000 0.2605506358 0.2605506358  Biso 1.0 O
O6 1.0000000000 0.0000000000 0.7394493642 0.2394493642  Biso 1.0 O
O7 1.0000000000 0.7605506358 0.0000000000 0.7605506358  Biso 1.0 O
O8 1.0000000000 0.2394493642 0.5000000000 0.7394493642  Biso 1.0 O
O9 1.0000000000 0.5000000000 0.7394493642 0.7394493642  Biso 1.0 O
O10 1.0000000000 0.0000000000 0.2605506358 0.7605506358  Biso 1.0 O
O11 1.0000000000 0.1537749315 0.9037749315 0.7500000000  Biso 1.0 O
O12 1.0000000000 0.4037749315 0.6537749315 0.2500000000  Biso 1.0 O
O13 1.0000000000 0.8462250685 0.0962250685 0.2500000000  Biso 1.0 O
O14 1.0000000000 0.5962250685 0.3462250685 0.7500000000  Biso 1.0 O
O15 1.0000000000 0.3750000000 0.1250000000 0.7500000000  Biso 1.0 O
O16 1.0000000000 0.6250000000 0.8750000000 0.2500000000  Biso 1.0 O
U17 1.0000000000 0.5000000000 0.5000000000 0.0000000000  Biso 1.0 U
U18 1.0000000000 0.5000000000 0.0000000000 0.5000000000  Biso 1.0 U
U19 1.0000000000 0.0000000000 0.0000000000 0.5000000000  Biso 1.0 U
U20 1.0000000000 0.5000000000 0.0000000000 0.0000000000  Biso 1.0 U
