# AFLOW.org Repositories
# Ba1Os4Sb12   [BCC,BCC,cI34] (STD_PRIM do
data_Ba1Os4Sb12
_pd_phase_name Ba1Os4Sb12
_cell_length_a  8.1855847760
_cell_length_b  8.1855847760
_cell_length_c  8.1855847760
_cell_angle_alpha  109.4712206345
_cell_angle_beta  109.4712206345
_cell_angle_gamma  109.4712206345
_symmetry_space_group_name_H-M  'P1'
_symmetry_Int_Tables_Number  1
loop_
_symmetry_equiv_pos_site_id
_symmetry_equiv_pos_as_xyz
  1  x,y,z
loop_
 _atom_site_label
 _atom_site_occupancy
 _atom_site_fract_x
 _atom_site_fract_y
 _atom_site_fract_z
 _atom_site_thermal_displace_type
 _atom_site_B_iso_or_equiv
 _atom_site_type_symbol
Ba1 1.0000000000 0.0000000000 0.0000000000 0.0000000000  Biso 1.0 Ba
Os2 1.0000000000 0.5000000000 0.0000000000 0.0000000000  Biso 1.0 Os
Os3 1.0000000000 0.5000000000 0.5000000000 0.5000000000  Biso 1.0 Os
Os4 1.0000000000 0.0000000000 0.0000000000 0.5000000000  Biso 1.0 Os
Os5 1.0000000000 0.0000000000 0.5000000000 0.0000000000  Biso 1.0 Os
Sb6 1.0000000000 0.1591641280 0.6565865585 0.8157506865  Biso 1.0 Sb
Sb7 1.0000000000 0.8408358720 0.6565865585 0.4974224305  Biso 1.0 Sb
Sb8 1.0000000000 0.1591641280 0.3434134415 0.5025775695  Biso 1.0 Sb
Sb9 1.0000000000 0.8408358720 0.3434134415 0.1842493135  Biso 1.0 Sb
Sb10 1.0000000000 0.3434134415 0.1842493135 0.8408358720  Biso 1.0 Sb
Sb11 1.0000000000 0.3434134415 0.5025775695 0.1591641280  Biso 1.0 Sb
Sb12 1.0000000000 0.6565865585 0.4974224305 0.8408358720  Biso 1.0 Sb
Sb13 1.0000000000 0.6565865585 0.8157506865 0.1591641280  Biso 1.0 Sb
Sb14 1.0000000000 0.5025775695 0.1591641280 0.3434134415  Biso 1.0 Sb
Sb15 1.0000000000 0.1842493135 0.8408358720 0.3434134415  Biso 1.0 Sb
Sb16 1.0000000000 0.8157506865 0.1591641280 0.6565865585  Biso 1.0 Sb
Sb17 1.0000000000 0.4974224305 0.8408358720 0.6565865585  Biso 1.0 Sb
