# AFLOW.org Repositories
# Ba1O2   [BCT,BCT2,tI6] (STD_PRIM doi:10.
data_Ba1O2
_pd_phase_name Ba1O2
_cell_length_a  4.4226760707
_cell_length_b  4.4226760707
_cell_length_c  4.4226760707
_cell_angle_alpha  128.1745745802
_cell_angle_beta  128.1745745802
_cell_angle_gamma  76.3423944796
_symmetry_space_group_name_H-M  'P1'
_symmetry_Int_Tables_Number  1
loop_
_symmetry_equiv_pos_site_id
_symmetry_equiv_pos_as_xyz
  1  x,y,z
loop_
 _atom_site_label
 _atom_site_occupancy
 _atom_site_fract_x
 _atom_site_fract_y
 _atom_site_fract_z
 _atom_site_thermal_displace_type
 _atom_site_B_iso_or_equiv
 _atom_site_type_symbol
Ba1 1.0000000000 0.0000000000 0.0000000000 0.0000000000  Biso 1.0 Ba
O2 1.0000000000 0.6079674340 0.6079674340 0.0000000000  Biso 1.0 O
O3 1.0000000000 0.3920325660 0.3920325660 0.0000000000  Biso 1.0 O
