# AFLOW.org Repositories
# Ba1Pt1Sn3   [BCT,BCT2,tI10] (STD_PRIM do
data_Ba1Pt1Sn3
_pd_phase_name Ba1Pt1Sn3
_cell_length_a  6.6863085935
_cell_length_b  6.6863085935
_cell_length_c  6.6863085935
_cell_angle_alpha  135.9609335692
_cell_angle_beta  135.9609335692
_cell_angle_gamma  64.0407383111
_symmetry_space_group_name_H-M  'P1'
_symmetry_Int_Tables_Number  1
loop_
_symmetry_equiv_pos_site_id
_symmetry_equiv_pos_as_xyz
  1  x,y,z
loop_
 _atom_site_label
 _atom_site_occupancy
 _atom_site_fract_x
 _atom_site_fract_y
 _atom_site_fract_z
 _atom_site_thermal_displace_type
 _atom_site_B_iso_or_equiv
 _atom_site_type_symbol
Ba1 1.0000000000 0.0000000000 0.0000000000 0.0000000000  Biso 1.0 Ba
Pt2 1.0000000000 0.6550273420 0.6550273420 0.0000000000  Biso 1.0 Pt
Sn3 1.0000000000 0.4187007127 0.4187007127 0.0000000000  Biso 1.0 Sn
Sn4 1.0000000000 0.7519872177 0.2519872177 0.5000000000  Biso 1.0 Sn
Sn5 1.0000000000 0.2519872177 0.7519872177 0.5000000000  Biso 1.0 Sn
