# AFLOW.org Repositories
# Ba1Pb6Rh3   [ORCC,ORCC,oS40] (STD_PRIM d
data_Ba1Pb6Rh3
_pd_phase_name Ba1Pb6Rh3
_cell_length_a  14.3435670314
_cell_length_b  14.3435670314
_cell_length_c  4.5819316116
_cell_angle_alpha  90.0000000000
_cell_angle_beta  90.0000000000
_cell_angle_gamma  146.2115326580
_symmetry_space_group_name_H-M  'P1'
_symmetry_Int_Tables_Number  1
loop_
_symmetry_equiv_pos_site_id
_symmetry_equiv_pos_as_xyz
  1  x,y,z
loop_
 _atom_site_label
 _atom_site_occupancy
 _atom_site_fract_x
 _atom_site_fract_y
 _atom_site_fract_z
 _atom_site_thermal_displace_type
 _atom_site_B_iso_or_equiv
 _atom_site_type_symbol
Ba1 1.0000000000 0.4113020430 0.5886979570 0.7500000000  Biso 1.0 Ba
Ba2 1.0000000000 0.5886979570 0.4113020430 0.2500000000  Biso 1.0 Ba
Pb3 1.0000000000 0.8653393814 0.1346606186 0.7500000000  Biso 1.0 Pb
Pb4 1.0000000000 0.1346606186 0.8653393814 0.2500000000  Biso 1.0 Pb
Pb5 1.0000000000 0.2502191259 0.7497808741 0.7500000000  Biso 1.0 Pb
Pb6 1.0000000000 0.7497808741 0.2502191259 0.2500000000  Biso 1.0 Pb
Pb7 1.0000000000 0.2465775658 0.1543689619 0.7500000000  Biso 1.0 Pb
Pb8 1.0000000000 0.7534224342 0.8456310381 0.2500000000  Biso 1.0 Pb
Pb9 1.0000000000 0.8456310381 0.7534224342 0.7500000000  Biso 1.0 Pb
Pb10 1.0000000000 0.1543689619 0.2465775658 0.2500000000  Biso 1.0 Pb
Pb11 1.0000000000 0.4729604682 0.1296813224 0.7500000000  Biso 1.0 Pb
Pb12 1.0000000000 0.5270395318 0.8703186776 0.2500000000  Biso 1.0 Pb
Pb13 1.0000000000 0.8703186776 0.5270395318 0.7500000000  Biso 1.0 Pb
Pb14 1.0000000000 0.1296813224 0.4729604682 0.2500000000  Biso 1.0 Pb
Rh15 1.0000000000 0.9626389838 0.0373610162 0.7500000000  Biso 1.0 Rh
Rh16 1.0000000000 0.0373610162 0.9626389838 0.2500000000  Biso 1.0 Rh
Rh17 1.0000000000 0.5937785817 0.0274394827 0.7500000000  Biso 1.0 Rh
Rh18 1.0000000000 0.4062214183 0.9725605173 0.2500000000  Biso 1.0 Rh
Rh19 1.0000000000 0.9725605173 0.4062214183 0.7500000000  Biso 1.0 Rh
Rh20 1.0000000000 0.0274394827 0.5937785817 0.2500000000  Biso 1.0 Rh
