# AFLOW.org Repositories
# Ba1Pd1S2   [ORCC,ORCC,oS16] (STD_PRIM do
data_Ba1Pd1S2
_pd_phase_name Ba1Pd1S2
_cell_length_a  6.3853328306
_cell_length_b  6.3853328306
_cell_length_c  5.7070180623
_cell_angle_alpha  90.0000000000
_cell_angle_beta  90.0000000000
_cell_angle_gamma  114.9510025758
_symmetry_space_group_name_H-M  'P1'
_symmetry_Int_Tables_Number  1
loop_
_symmetry_equiv_pos_site_id
_symmetry_equiv_pos_as_xyz
  1  x,y,z
loop_
 _atom_site_label
 _atom_site_occupancy
 _atom_site_fract_x
 _atom_site_fract_y
 _atom_site_fract_z
 _atom_site_thermal_displace_type
 _atom_site_B_iso_or_equiv
 _atom_site_type_symbol
Ba1 1.0000000000 0.6504125247 0.3495874753 0.7500000000  Biso 1.0 Ba
Ba2 1.0000000000 0.3495874753 0.6504125247 0.2500000000  Biso 1.0 Ba
Pd3 1.0000000000 0.0000000000 0.0000000000 0.0000000000  Biso 1.0 Pd
Pd4 1.0000000000 0.0000000000 0.0000000000 0.5000000000  Biso 1.0 Pd
S5 1.0000000000 0.6688375925 0.8592321248 0.7500000000  Biso 1.0 S
S6 1.0000000000 0.3311624075 0.1407678752 0.2500000000  Biso 1.0 S
S7 1.0000000000 0.1407678752 0.3311624075 0.7500000000  Biso 1.0 S
S8 1.0000000000 0.8592321248 0.6688375925 0.2500000000  Biso 1.0 S
