# AFLOW.org Repositories
# Ba1Sn1   [ORCC,ORCC,oS8] (STD_PRIM doi:1
data_Ba1Sn1
_pd_phase_name Ba1Sn1
_cell_length_a  6.9234645395
_cell_length_b  6.9234645395
_cell_length_c  4.7641851653
_cell_angle_alpha  90.0000000000
_cell_angle_beta  90.0000000000
_cell_angle_gamma  134.3693850889
_symmetry_space_group_name_H-M  'P1'
_symmetry_Int_Tables_Number  1
loop_
_symmetry_equiv_pos_site_id
_symmetry_equiv_pos_as_xyz
  1  x,y,z
loop_
 _atom_site_label
 _atom_site_occupancy
 _atom_site_fract_x
 _atom_site_fract_y
 _atom_site_fract_z
 _atom_site_thermal_displace_type
 _atom_site_B_iso_or_equiv
 _atom_site_type_symbol
Ba1 1.0000000000 0.8652947106 0.1347052894 0.7500000000  Biso 1.0 Ba
Ba2 1.0000000000 0.1347052894 0.8652947106 0.2500000000  Biso 1.0 Ba
Sn3 1.0000000000 0.5746105556 0.4253894444 0.7500000000  Biso 1.0 Sn
Sn4 1.0000000000 0.4253894444 0.5746105556 0.2500000000  Biso 1.0 Sn
