# AFLOW.org Repositories
# Ba1Si2   [CUB,CUB,cP12] (STD_PRIM doi:10
data_Ba1Si2
_pd_phase_name Ba1Si2
_cell_length_a  6.7689877591
_cell_length_b  6.7689877591
_cell_length_c  6.7689877591
_cell_angle_alpha  90.0000000000
_cell_angle_beta  90.0000000000
_cell_angle_gamma  90.0000000000
_symmetry_space_group_name_H-M  'P1'
_symmetry_Int_Tables_Number  1
loop_
_symmetry_equiv_pos_site_id
_symmetry_equiv_pos_as_xyz
  1  x,y,z
loop_
 _atom_site_label
 _atom_site_occupancy
 _atom_site_fract_x
 _atom_site_fract_y
 _atom_site_fract_z
 _atom_site_thermal_displace_type
 _atom_site_B_iso_or_equiv
 _atom_site_type_symbol
Ba1 1.0000000000 0.8750000000 0.8750000000 0.1250000000  Biso 1.0 Ba
Ba2 1.0000000000 0.6250000000 0.1250000000 0.6250000000  Biso 1.0 Ba
Ba3 1.0000000000 0.1250000000 0.3750000000 0.3750000000  Biso 1.0 Ba
Ba4 1.0000000000 0.3750000000 0.6250000000 0.8750000000  Biso 1.0 Ba
Si5 1.0000000000 0.5817594006 0.5817594006 0.4182405994  Biso 1.0 Si
Si6 1.0000000000 0.9182405994 0.4182405994 0.9182405994  Biso 1.0 Si
Si7 1.0000000000 0.4182405994 0.0817594006 0.0817594006  Biso 1.0 Si
Si8 1.0000000000 0.0817594006 0.9182405994 0.5817594006  Biso 1.0 Si
Si9 1.0000000000 0.3317594006 0.8317594006 0.3317594006  Biso 1.0 Si
Si10 1.0000000000 0.1682405994 0.1682405994 0.8317594006  Biso 1.0 Si
Si11 1.0000000000 0.8317594006 0.6682405994 0.6682405994  Biso 1.0 Si
Si12 1.0000000000 0.6682405994 0.3317594006 0.1682405994  Biso 1.0 Si
