# AFLOW.org Repositories
# Ba1Te3   [TET,TET,tP8] (STD_PRIM doi:10.
data_Ba1Te3
_pd_phase_name Ba1Te3
_cell_length_a  8.0653433866
_cell_length_b  8.0653433866
_cell_length_c  4.4533088157
_cell_angle_alpha  90.0000000000
_cell_angle_beta  90.0000000000
_cell_angle_gamma  90.0000000000
_symmetry_space_group_name_H-M  'P1'
_symmetry_Int_Tables_Number  1
loop_
_symmetry_equiv_pos_site_id
_symmetry_equiv_pos_as_xyz
  1  x,y,z
loop_
 _atom_site_label
 _atom_site_occupancy
 _atom_site_fract_x
 _atom_site_fract_y
 _atom_site_fract_z
 _atom_site_thermal_displace_type
 _atom_site_B_iso_or_equiv
 _atom_site_type_symbol
Ba1 1.0000000000 0.0000000000 0.0000000000 0.0000000000  Biso 1.0 Ba
Ba2 1.0000000000 0.5000000000 0.5000000000 0.0000000000  Biso 1.0 Ba
Te3 1.0000000000 0.0000000000 0.5000000000 0.1211973318  Biso 1.0 Te
Te4 1.0000000000 0.5000000000 0.0000000000 0.8788026682  Biso 1.0 Te
Te5 1.0000000000 0.2006618482 0.7006618482 0.5004427063  Biso 1.0 Te
Te6 1.0000000000 0.7993381518 0.2993381518 0.5004427063  Biso 1.0 Te
Te7 1.0000000000 0.7006618482 0.7993381518 0.4995572937  Biso 1.0 Te
Te8 1.0000000000 0.2993381518 0.2006618482 0.4995572937  Biso 1.0 Te
