# AFLOW.org Repositories
# Ba2Cd1   [BCT,BCT2,tI6] (STD_PRIM doi:10
data_Ba2Cd1
_pd_phase_name Ba2Cd1
_cell_length_a  8.2101527487
_cell_length_b  8.2101527487
_cell_length_c  8.2101527487
_cell_angle_alpha  149.5485717433
_cell_angle_beta  149.5485717433
_cell_angle_gamma  43.6044565600
_symmetry_space_group_name_H-M  'P1'
_symmetry_Int_Tables_Number  1
loop_
_symmetry_equiv_pos_site_id
_symmetry_equiv_pos_as_xyz
  1  x,y,z
loop_
 _atom_site_label
 _atom_site_occupancy
 _atom_site_fract_x
 _atom_site_fract_y
 _atom_site_fract_z
 _atom_site_thermal_displace_type
 _atom_site_B_iso_or_equiv
 _atom_site_type_symbol
Ba1 1.0000000000 0.6327670734 0.6327670734 0.0000000000  Biso 1.0 Ba
Ba2 1.0000000000 0.3672329266 0.3672329266 0.0000000000  Biso 1.0 Ba
Cd3 1.0000000000 0.0000000000 0.0000000000 0.0000000000  Biso 1.0 Cd
