# AFLOW.org Repositories
# Ba2F6Pd1   [ORCC,ORCC,oS36] (STD_PRIM do
data_Ba2F6Pd1
_pd_phase_name Ba2F6Pd1
_cell_length_a  9.2738380483
_cell_length_b  9.2738380483
_cell_length_c  6.2712609061
_cell_angle_alpha  90.0000000000
_cell_angle_beta  90.0000000000
_cell_angle_gamma  140.4550620811
_symmetry_space_group_name_H-M  'P1'
_symmetry_Int_Tables_Number  1
loop_
_symmetry_equiv_pos_site_id
_symmetry_equiv_pos_as_xyz
  1  x,y,z
loop_
 _atom_site_label
 _atom_site_occupancy
 _atom_site_fract_x
 _atom_site_fract_y
 _atom_site_fract_z
 _atom_site_thermal_displace_type
 _atom_site_B_iso_or_equiv
 _atom_site_type_symbol
Ba1 1.0000000000 0.8392350848 0.1607649152 0.0000000000  Biso 1.0 Ba
Ba2 1.0000000000 0.6607649152 0.3392350848 0.5000000000  Biso 1.0 Ba
Ba3 1.0000000000 0.1607649152 0.8392350848 0.0000000000  Biso 1.0 Ba
Ba4 1.0000000000 0.3392350848 0.6607649152 0.5000000000  Biso 1.0 Ba
F5 1.0000000000 0.0056356897 0.5056356897 0.7500000000  Biso 1.0 F
F6 1.0000000000 0.4943643103 0.9943643103 0.2500000000  Biso 1.0 F
F7 1.0000000000 0.9943643103 0.4943643103 0.2500000000  Biso 1.0 F
F8 1.0000000000 0.5056356897 0.0056356897 0.7500000000  Biso 1.0 F
F9 1.0000000000 0.5777650732 0.7418037671 0.8393778949  Biso 1.0 F
F10 1.0000000000 0.9222349268 0.7581962329 0.3393778949  Biso 1.0 F
F11 1.0000000000 0.2418037671 0.0777650732 0.6606221051  Biso 1.0 F
F12 1.0000000000 0.2581962329 0.4222349268 0.1606221051  Biso 1.0 F
F13 1.0000000000 0.4222349268 0.2581962329 0.1606221051  Biso 1.0 F
F14 1.0000000000 0.0777650732 0.2418037671 0.6606221051  Biso 1.0 F
F15 1.0000000000 0.7581962329 0.9222349268 0.3393778949  Biso 1.0 F
F16 1.0000000000 0.7418037671 0.5777650732 0.8393778949  Biso 1.0 F
Pd17 1.0000000000 0.5000000000 0.5000000000 0.0000000000  Biso 1.0 Pd
Pd18 1.0000000000 0.0000000000 0.0000000000 0.5000000000  Biso 1.0 Pd
