# AFLOW.org Repositories
# Ba2Hf1S4   [BCT,BCT2,tI14] (STD_PRIM doi
data_Ba2Hf1S4
_pd_phase_name Ba2Hf1S4
_cell_length_a  8.6728546142
_cell_length_b  8.6728546142
_cell_length_c  8.6728546142
_cell_angle_alpha  146.7135614185
_cell_angle_beta  146.7135614185
_cell_angle_gamma  47.7880893065
_symmetry_space_group_name_H-M  'P1'
_symmetry_Int_Tables_Number  1
loop_
_symmetry_equiv_pos_site_id
_symmetry_equiv_pos_as_xyz
  1  x,y,z
loop_
 _atom_site_label
 _atom_site_occupancy
 _atom_site_fract_x
 _atom_site_fract_y
 _atom_site_fract_z
 _atom_site_thermal_displace_type
 _atom_site_B_iso_or_equiv
 _atom_site_type_symbol
Ba1 1.0000000000 0.3577333446 0.3577333446 0.0000000000  Biso 1.0 Ba
Ba2 1.0000000000 0.6422666554 0.6422666554 0.0000000000  Biso 1.0 Ba
Hf3 1.0000000000 0.0000000000 0.0000000000 0.0000000000  Biso 1.0 Hf
S4 1.0000000000 0.1619469462 0.1619469462 0.0000000000  Biso 1.0 S
S5 1.0000000000 0.8380530538 0.8380530538 0.0000000000  Biso 1.0 S
S6 1.0000000000 0.0000000000 0.5000000000 0.5000000000  Biso 1.0 S
S7 1.0000000000 0.5000000000 0.0000000000 0.5000000000  Biso 1.0 S
