# AFLOW.org Repositories
# Ba2N2Zn1   [BCT,BCT2,tI10] (STD_PRIM doi
data_Ba2N2Zn1
_pd_phase_name Ba2N2Zn1
_cell_length_a  7.1461771832
_cell_length_b  7.1461771832
_cell_length_c  7.1461771832
_cell_angle_alpha  145.7578727551
_cell_angle_beta  145.7578727551
_cell_angle_gamma  49.2065434251
_symmetry_space_group_name_H-M  'P1'
_symmetry_Int_Tables_Number  1
loop_
_symmetry_equiv_pos_site_id
_symmetry_equiv_pos_as_xyz
  1  x,y,z
loop_
 _atom_site_label
 _atom_site_occupancy
 _atom_site_fract_x
 _atom_site_fract_y
 _atom_site_fract_z
 _atom_site_thermal_displace_type
 _atom_site_B_iso_or_equiv
 _atom_site_type_symbol
Ba1 1.0000000000 0.6553588469 0.6553588469 0.0000000000  Biso 1.0 Ba
Ba2 1.0000000000 0.3446411531 0.3446411531 0.0000000000  Biso 1.0 Ba
N3 1.0000000000 0.8606671679 0.8606671679 0.0000000000  Biso 1.0 N
N4 1.0000000000 0.1393328321 0.1393328321 0.0000000000  Biso 1.0 N
Zn5 1.0000000000 0.0000000000 0.0000000000 0.0000000000  Biso 1.0 Zn
