# AFLOW.org Repositories
# Ba2O4Zr1   [BCT,BCT2,tI14] (STD_PRIM doi
data_Ba2O4Zr1
_pd_phase_name Ba2O4Zr1
_cell_length_a  7.4374553400
_cell_length_b  7.4374553400
_cell_length_c  7.4374553400
_cell_angle_alpha  146.8236492425
_cell_angle_beta  146.8236492425
_cell_angle_gamma  47.6249694317
_symmetry_space_group_name_H-M  'P1'
_symmetry_Int_Tables_Number  1
loop_
_symmetry_equiv_pos_site_id
_symmetry_equiv_pos_as_xyz
  1  x,y,z
loop_
 _atom_site_label
 _atom_site_occupancy
 _atom_site_fract_x
 _atom_site_fract_y
 _atom_site_fract_z
 _atom_site_thermal_displace_type
 _atom_site_B_iso_or_equiv
 _atom_site_type_symbol
Ba1 1.0000000000 0.6469854491 0.6469854491 0.0000000000  Biso 1.0 Ba
Ba2 1.0000000000 0.3530145509 0.3530145509 0.0000000000  Biso 1.0 Ba
O3 1.0000000000 0.5000000000 0.0000000000 0.5000000000  Biso 1.0 O
O4 1.0000000000 0.0000000000 0.5000000000 0.5000000000  Biso 1.0 O
O5 1.0000000000 0.8425750170 0.8425750170 0.0000000000  Biso 1.0 O
O6 1.0000000000 0.1574249830 0.1574249830 0.0000000000  Biso 1.0 O
Zr7 1.0000000000 0.0000000000 0.0000000000 0.0000000000  Biso 1.0 Zr
