# AFLOW.org Repositories
# Ba2Sn1   [ORC,ORC,oP12] (STD_PRIM doi:10
data_Ba2Sn1
_pd_phase_name Ba2Sn1
_cell_length_a  5.7310905404
_cell_length_b  8.7999960789
_cell_length_c  10.7485382939
_cell_angle_alpha  90.0000000000
_cell_angle_beta  90.0000000000
_cell_angle_gamma  90.0000000000
_symmetry_space_group_name_H-M  'P1'
_symmetry_Int_Tables_Number  1
loop_
_symmetry_equiv_pos_site_id
_symmetry_equiv_pos_as_xyz
  1  x,y,z
loop_
 _atom_site_label
 _atom_site_occupancy
 _atom_site_fract_x
 _atom_site_fract_y
 _atom_site_fract_z
 _atom_site_thermal_displace_type
 _atom_site_B_iso_or_equiv
 _atom_site_type_symbol
Ba1 1.0000000000 0.2500000000 0.1562351808 0.9206531073  Biso 1.0 Ba
Ba2 1.0000000000 0.7500000000 0.3437648192 0.4206531073  Biso 1.0 Ba
Ba3 1.0000000000 0.7500000000 0.8437648192 0.0793468927  Biso 1.0 Ba
Ba4 1.0000000000 0.2500000000 0.6562351808 0.5793468927  Biso 1.0 Ba
Ba5 1.0000000000 0.2500000000 0.0190771039 0.3200844526  Biso 1.0 Ba
Ba6 1.0000000000 0.7500000000 0.4809228961 0.8200844526  Biso 1.0 Ba
Ba7 1.0000000000 0.7500000000 0.9809228961 0.6799155474  Biso 1.0 Ba
Ba8 1.0000000000 0.2500000000 0.5190771039 0.1799155474  Biso 1.0 Ba
Sn9 1.0000000000 0.2500000000 0.2473754258 0.6018587358  Biso 1.0 Sn
Sn10 1.0000000000 0.7500000000 0.2526245742 0.1018587358  Biso 1.0 Sn
Sn11 1.0000000000 0.7500000000 0.7526245742 0.3981412642  Biso 1.0 Sn
Sn12 1.0000000000 0.2500000000 0.7473754258 0.8981412642  Biso 1.0 Sn
