# AFLOW.org Repositories
# Ba3Cr1N3   [HEX,HEX,hP14] (STD_PRIM doi:
data_Ba3Cr1N3
_pd_phase_name Ba3Cr1N3
_cell_length_a  8.3737224531
_cell_length_b  8.3737224531
_cell_length_c  5.5136121546
_cell_angle_alpha  90.0000000000
_cell_angle_beta  90.0000000000
_cell_angle_gamma  120.0000000000
_symmetry_space_group_name_H-M  'P1'
_symmetry_Int_Tables_Number  1
loop_
_symmetry_equiv_pos_site_id
_symmetry_equiv_pos_as_xyz
  1  x,y,z
loop_
 _atom_site_label
 _atom_site_occupancy
 _atom_site_fract_x
 _atom_site_fract_y
 _atom_site_fract_z
 _atom_site_thermal_displace_type
 _atom_site_B_iso_or_equiv
 _atom_site_type_symbol
Ba1 1.0000000000 0.2811349189 0.9193359648 0.2500000000  Biso 1.0 Ba
Ba2 1.0000000000 0.0806984268 0.3617989246 0.2500000000  Biso 1.0 Ba
Ba3 1.0000000000 0.6381810211 0.7189175328 0.2500000000  Biso 1.0 Ba
Ba4 1.0000000000 0.7188650811 0.0806640352 0.7500000000  Biso 1.0 Ba
Ba5 1.0000000000 0.9193015732 0.6382010754 0.7500000000  Biso 1.0 Ba
Ba6 1.0000000000 0.3618189789 0.2810824672 0.7500000000  Biso 1.0 Ba
Cr7 1.0000000000 0.3333598705 0.6667162779 0.7500000000  Biso 1.0 Cr
Cr8 1.0000000000 0.6666401295 0.3332837221 0.2500000000  Biso 1.0 Cr
N9 1.0000000000 0.3168699170 0.8656559756 0.7500000000  Biso 1.0 N
N10 1.0000000000 0.1341273718 0.4509556209 0.7500000000  Biso 1.0 N
N11 1.0000000000 0.5488910264 0.6830015156 0.7500000000  Biso 1.0 N
N12 1.0000000000 0.6831300830 0.1343440244 0.2500000000  Biso 1.0 N
N13 1.0000000000 0.8658726282 0.5490443791 0.2500000000  Biso 1.0 N
N14 1.0000000000 0.4511089736 0.3169984844 0.2500000000  Biso 1.0 N
