# AFLOW.org Repositories
# Ba3Cr1S5   [HEX,HEX,hP18] (STD_PRIM doi:
data_Ba3Cr1S5
_pd_phase_name Ba3Cr1S5
_cell_length_a  9.2720935769
_cell_length_b  9.2720935769
_cell_length_c  6.2266603843
_cell_angle_alpha  90.0000000000
_cell_angle_beta  90.0000000000
_cell_angle_gamma  120.0000000000
_symmetry_space_group_name_H-M  'P1'
_symmetry_Int_Tables_Number  1
loop_
_symmetry_equiv_pos_site_id
_symmetry_equiv_pos_as_xyz
  1  x,y,z
loop_
 _atom_site_label
 _atom_site_occupancy
 _atom_site_fract_x
 _atom_site_fract_y
 _atom_site_fract_z
 _atom_site_thermal_displace_type
 _atom_site_B_iso_or_equiv
 _atom_site_type_symbol
Ba1 1.0000000000 0.6190673103 0.6190673103 0.8277084853  Biso 1.0 Ba
Ba2 1.0000000000 0.3809338163 0.0000000000 0.8277084853  Biso 1.0 Ba
Ba3 1.0000000000 0.0000000000 0.3809334619 0.8277104378  Biso 1.0 Ba
Ba4 1.0000000000 0.3809326897 0.3809326897 0.3277084853  Biso 1.0 Ba
Ba5 1.0000000000 0.6190661837 0.0000000000 0.3277084853  Biso 1.0 Ba
Ba6 1.0000000000 0.0000000000 0.6190665381 0.3277104378  Biso 1.0 Ba
Cr7 1.0000000000 0.0000000000 0.0000000000 0.0973918321  Biso 1.0 Cr
Cr8 1.0000000000 0.0000000000 0.0000000000 0.5973918321  Biso 1.0 Cr
S9 1.0000000000 0.6666665466 0.3333334434 0.0790865829  Biso 1.0 S
S10 1.0000000000 0.3333334534 0.6666665566 0.5790865829  Biso 1.0 S
S11 1.0000000000 0.6666665466 0.3333331031 0.5790865829  Biso 1.0 S
S12 1.0000000000 0.3333334534 0.6666668969 0.0790865829  Biso 1.0 S
S13 1.0000000000 0.7884618368 0.0000000000 0.8474349069  Biso 1.0 S
S14 1.0000000000 0.0000000000 0.7884596077 0.8474377797  Biso 1.0 S
S15 1.0000000000 0.2115358654 0.2115358654 0.8474349069  Biso 1.0 S
S16 1.0000000000 0.2115381632 0.0000000000 0.3474349069  Biso 1.0 S
S17 1.0000000000 0.0000000000 0.2115403923 0.3474377797  Biso 1.0 S
S18 1.0000000000 0.7884641346 0.7884641346 0.3474349069  Biso 1.0 S
