# AFLOW.org Repositories
# Ba3O5Si1   [BCT,BCT2,tI36] (STD_PRIM doi
data_Ba3O5Si1
_pd_phase_name Ba3O5Si1
_cell_length_a  7.7375360812
_cell_length_b  7.7375360812
_cell_length_c  7.7375360812
_cell_angle_alpha  122.8041568409
_cell_angle_beta  122.8041568409
_cell_angle_gamma  85.2080184562
_symmetry_space_group_name_H-M  'P1'
_symmetry_Int_Tables_Number  1
loop_
_symmetry_equiv_pos_site_id
_symmetry_equiv_pos_as_xyz
  1  x,y,z
loop_
 _atom_site_label
 _atom_site_occupancy
 _atom_site_fract_x
 _atom_site_fract_y
 _atom_site_fract_z
 _atom_site_thermal_displace_type
 _atom_site_B_iso_or_equiv
 _atom_site_type_symbol
Ba1 1.0000000000 0.2500000000 0.2500000000 0.0000000000  Biso 1.0 Ba
Ba2 1.0000000000 0.7500000000 0.7500000000 0.0000000000  Biso 1.0 Ba
Ba3 1.0000000000 0.8169313083 0.6830686917 0.5000000000  Biso 1.0 Ba
Ba4 1.0000000000 0.1830686917 0.3169313083 0.5000000000  Biso 1.0 Ba
Ba5 1.0000000000 0.6830686917 0.1830686917 0.8661373834  Biso 1.0 Ba
Ba6 1.0000000000 0.3169313083 0.8169313083 0.1338626166  Biso 1.0 Ba
O7 1.0000000000 0.0000000000 0.0000000000 0.0000000000  Biso 1.0 O
O8 1.0000000000 0.5000000000 0.5000000000 0.0000000000  Biso 1.0 O
O9 1.0000000000 0.2109488063 0.9641214752 0.5000000000  Biso 1.0 O
O10 1.0000000000 0.4641214752 0.7109488063 0.5000000000  Biso 1.0 O
O11 1.0000000000 0.9641214752 0.4641214752 0.7531726689  Biso 1.0 O
O12 1.0000000000 0.7109488063 0.2109488063 0.2468273311  Biso 1.0 O
O13 1.0000000000 0.2890511937 0.7890511937 0.7531726689  Biso 1.0 O
O14 1.0000000000 0.0358785248 0.5358785248 0.2468273311  Biso 1.0 O
O15 1.0000000000 0.5358785248 0.2890511937 0.5000000000  Biso 1.0 O
O16 1.0000000000 0.7890511937 0.0358785248 0.5000000000  Biso 1.0 O
Si17 1.0000000000 0.2500000000 0.7500000000 0.5000000000  Biso 1.0 Si
Si18 1.0000000000 0.7500000000 0.2500000000 0.5000000000  Biso 1.0 Si
