# AFLOW.org Repositories
# Ba3Sn5   [ORCC,ORCC,oS32] (STD_PRIM doi:
data_Ba3Sn5
_pd_phase_name Ba3Sn5
_cell_length_a  7.2328341266
_cell_length_b  7.2328341266
_cell_length_c  11.3715912692
_cell_angle_alpha  90.0000000000
_cell_angle_beta  90.0000000000
_cell_angle_gamma  101.5902958758
_symmetry_space_group_name_H-M  'P1'
_symmetry_Int_Tables_Number  1
loop_
_symmetry_equiv_pos_site_id
_symmetry_equiv_pos_as_xyz
  1  x,y,z
loop_
 _atom_site_label
 _atom_site_occupancy
 _atom_site_fract_x
 _atom_site_fract_y
 _atom_site_fract_z
 _atom_site_thermal_displace_type
 _atom_site_B_iso_or_equiv
 _atom_site_type_symbol
Ba1 1.0000000000 0.1489302419 0.1489302419 0.7500000000  Biso 1.0 Ba
Ba2 1.0000000000 0.8510697581 0.8510697581 0.2500000000  Biso 1.0 Ba
Ba3 1.0000000000 0.2953523651 0.7046476349 0.0000000000  Biso 1.0 Ba
Ba4 1.0000000000 0.7046476349 0.2953523651 0.5000000000  Biso 1.0 Ba
Ba5 1.0000000000 0.7046476349 0.2953523651 0.0000000000  Biso 1.0 Ba
Ba6 1.0000000000 0.2953523651 0.7046476349 0.5000000000  Biso 1.0 Ba
Sn7 1.0000000000 0.5487732976 0.5487732976 0.7500000000  Biso 1.0 Sn
Sn8 1.0000000000 0.4512267024 0.4512267024 0.2500000000  Biso 1.0 Sn
Sn9 1.0000000000 0.9824383355 0.5950080856 0.7500000000  Biso 1.0 Sn
Sn10 1.0000000000 0.0175616645 0.4049919144 0.2500000000  Biso 1.0 Sn
Sn11 1.0000000000 0.5950080856 0.9824383355 0.7500000000  Biso 1.0 Sn
Sn12 1.0000000000 0.4049919144 0.0175616645 0.2500000000  Biso 1.0 Sn
Sn13 1.0000000000 0.1918118055 0.1918118055 0.4414249377  Biso 1.0 Sn
Sn14 1.0000000000 0.8081881945 0.8081881945 0.9414249377  Biso 1.0 Sn
Sn15 1.0000000000 0.1918118055 0.1918118055 0.0585750623  Biso 1.0 Sn
Sn16 1.0000000000 0.8081881945 0.8081881945 0.5585750623  Biso 1.0 Sn
