# AFLOW.org Repositories
# Ba4Bi3   [BCC,BCC,cI28] (STD_PRIM doi:10
data_Ba4Bi3
_pd_phase_name Ba4Bi3
_cell_length_a  9.2866525353
_cell_length_b  9.2866525353
_cell_length_c  9.2866525353
_cell_angle_alpha  109.4712206345
_cell_angle_beta  109.4712206345
_cell_angle_gamma  109.4712206345
_symmetry_space_group_name_H-M  'P1'
_symmetry_Int_Tables_Number  1
loop_
_symmetry_equiv_pos_site_id
_symmetry_equiv_pos_as_xyz
  1  x,y,z
loop_
 _atom_site_label
 _atom_site_occupancy
 _atom_site_fract_x
 _atom_site_fract_y
 _atom_site_fract_z
 _atom_site_thermal_displace_type
 _atom_site_B_iso_or_equiv
 _atom_site_type_symbol
Ba1 1.0000000000 0.8550648153 0.0000000000 0.0000000000  Biso 1.0 Ba
Ba2 1.0000000000 0.6449351847 0.6449351847 0.1449351847  Biso 1.0 Ba
Ba3 1.0000000000 0.5000000000 0.8550648153 0.5000000000  Biso 1.0 Ba
Ba4 1.0000000000 0.0000000000 0.5000000000 0.3550648153  Biso 1.0 Ba
Ba5 1.0000000000 0.3550648153 0.0000000000 0.0000000000  Biso 1.0 Ba
Ba6 1.0000000000 0.1449351847 0.1449351847 0.6449351847  Biso 1.0 Ba
Ba7 1.0000000000 0.0000000000 0.5000000000 0.8550648153  Biso 1.0 Ba
Ba8 1.0000000000 0.5000000000 0.3550648153 0.5000000000  Biso 1.0 Ba
Bi9 1.0000000000 0.6250000000 0.2500000000 0.8750000000  Biso 1.0 Bi
Bi10 1.0000000000 0.8750000000 0.7500000000 0.6250000000  Biso 1.0 Bi
Bi11 1.0000000000 0.3750000000 0.6250000000 0.7500000000  Biso 1.0 Bi
Bi12 1.0000000000 0.1250000000 0.8750000000 0.2500000000  Biso 1.0 Bi
Bi13 1.0000000000 0.7500000000 0.1250000000 0.3750000000  Biso 1.0 Bi
Bi14 1.0000000000 0.2500000000 0.3750000000 0.1250000000  Biso 1.0 Bi
