# AFLOW.org Repositories
# Ba5Sb4   [ORCC,ORCC,oS36] (STD_PRIM doi:
data_Ba5Sb4
_pd_phase_name Ba5Sb4
_cell_length_a  10.1042581153
_cell_length_b  10.1042581153
_cell_length_c  9.1945404032
_cell_angle_alpha  90.0000000000
_cell_angle_beta  90.0000000000
_cell_angle_gamma  126.1272739300
_symmetry_space_group_name_H-M  'P1'
_symmetry_Int_Tables_Number  1
loop_
_symmetry_equiv_pos_site_id
_symmetry_equiv_pos_as_xyz
  1  x,y,z
loop_
 _atom_site_label
 _atom_site_occupancy
 _atom_site_fract_x
 _atom_site_fract_y
 _atom_site_fract_z
 _atom_site_thermal_displace_type
 _atom_site_B_iso_or_equiv
 _atom_site_type_symbol
Ba1 1.0000000000 0.3144658306 0.0225395725 0.6641339944  Biso 1.0 Ba
Ba2 1.0000000000 0.1855341694 0.4774604275 0.1641339944  Biso 1.0 Ba
Ba3 1.0000000000 0.5225395725 0.8144658306 0.8358660056  Biso 1.0 Ba
Ba4 1.0000000000 0.9774604275 0.6855341694 0.3358660056  Biso 1.0 Ba
Ba5 1.0000000000 0.6855341694 0.9774604275 0.3358660056  Biso 1.0 Ba
Ba6 1.0000000000 0.8144658306 0.5225395725 0.8358660056  Biso 1.0 Ba
Ba7 1.0000000000 0.4774604275 0.1855341694 0.1641339944  Biso 1.0 Ba
Ba8 1.0000000000 0.0225395725 0.3144658306 0.6641339944  Biso 1.0 Ba
Ba9 1.0000000000 0.5000000000 0.5000000000 0.5000000000  Biso 1.0 Ba
Ba10 1.0000000000 0.0000000000 0.0000000000 0.0000000000  Biso 1.0 Ba
Sb11 1.0000000000 0.3016978043 0.6983021957 0.5000000000  Biso 1.0 Sb
Sb12 1.0000000000 0.1983021957 0.8016978043 0.0000000000  Biso 1.0 Sb
Sb13 1.0000000000 0.6983021957 0.3016978043 0.5000000000  Biso 1.0 Sb
Sb14 1.0000000000 0.8016978043 0.1983021957 0.0000000000  Biso 1.0 Sb
Sb15 1.0000000000 0.1133370258 0.1133370258 0.3870391189  Biso 1.0 Sb
Sb16 1.0000000000 0.3866629742 0.3866629742 0.8870391189  Biso 1.0 Sb
Sb17 1.0000000000 0.6133370258 0.6133370258 0.1129608811  Biso 1.0 Sb
Sb18 1.0000000000 0.8866629742 0.8866629742 0.6129608811  Biso 1.0 Sb
