# AFLOW.org Repositories
# Ba6Mg23   [FCC,FCC,cF116] (STD_PRIM doi:
data_Ba6Mg23
_pd_phase_name Ba6Mg23
_cell_length_a  10.7547502931
_cell_length_b  10.7547502931
_cell_length_c  10.7547502931
_cell_angle_alpha  60.0000000000
_cell_angle_beta  60.0000000000
_cell_angle_gamma  60.0000000000
_symmetry_space_group_name_H-M  'P1'
_symmetry_Int_Tables_Number  1
loop_
_symmetry_equiv_pos_site_id
_symmetry_equiv_pos_as_xyz
  1  x,y,z
loop_
 _atom_site_label
 _atom_site_occupancy
 _atom_site_fract_x
 _atom_site_fract_y
 _atom_site_fract_z
 _atom_site_thermal_displace_type
 _atom_site_B_iso_or_equiv
 _atom_site_type_symbol
Ba1 1.0000000000 0.2119102371 0.7880897629 0.2119102371  Biso 1.0 Ba
Ba2 1.0000000000 0.7880897629 0.2119102371 0.7880897629  Biso 1.0 Ba
Ba3 1.0000000000 0.2119102371 0.7880897629 0.7880897629  Biso 1.0 Ba
Ba4 1.0000000000 0.7880897629 0.2119102371 0.2119102371  Biso 1.0 Ba
Ba5 1.0000000000 0.2119102371 0.2119102371 0.7880897629  Biso 1.0 Ba
Ba6 1.0000000000 0.7880897629 0.7880897629 0.2119102371  Biso 1.0 Ba
Mg7 1.0000000000 0.5000000000 0.5000000000 0.5000000000  Biso 1.0 Mg
Mg8 1.0000000000 0.5000000000 0.0000000000 0.5000000000  Biso 1.0 Mg
Mg9 1.0000000000 0.0000000000 0.5000000000 0.0000000000  Biso 1.0 Mg
Mg10 1.0000000000 0.5000000000 0.0000000000 0.0000000000  Biso 1.0 Mg
Mg11 1.0000000000 0.0000000000 0.5000000000 0.5000000000  Biso 1.0 Mg
Mg12 1.0000000000 0.5000000000 0.5000000000 0.0000000000  Biso 1.0 Mg
Mg13 1.0000000000 0.0000000000 0.0000000000 0.5000000000  Biso 1.0 Mg
Mg14 1.0000000000 0.1317968339 0.6227343887 0.6227343887  Biso 1.0 Mg
Mg15 1.0000000000 0.6227343887 0.1317968339 0.6227343887  Biso 1.0 Mg
Mg16 1.0000000000 0.6227343887 0.6227343887 0.6227343887  Biso 1.0 Mg
Mg17 1.0000000000 0.6227343887 0.6227343887 0.1317968339  Biso 1.0 Mg
Mg18 1.0000000000 0.3772656113 0.8682031661 0.3772656113  Biso 1.0 Mg
Mg19 1.0000000000 0.8682031661 0.3772656113 0.3772656113  Biso 1.0 Mg
Mg20 1.0000000000 0.3772656113 0.3772656113 0.3772656113  Biso 1.0 Mg
Mg21 1.0000000000 0.3772656113 0.3772656113 0.8682031661  Biso 1.0 Mg
Mg22 1.0000000000 0.5302950053 0.8232349982 0.8232349982  Biso 1.0 Mg
Mg23 1.0000000000 0.8232349982 0.5302950053 0.8232349982  Biso 1.0 Mg
Mg24 1.0000000000 0.8232349982 0.8232349982 0.8232349982  Biso 1.0 Mg
Mg25 1.0000000000 0.8232349982 0.8232349982 0.5302950053  Biso 1.0 Mg
Mg26 1.0000000000 0.1767650018 0.4697049947 0.1767650018  Biso 1.0 Mg
Mg27 1.0000000000 0.4697049947 0.1767650018 0.1767650018  Biso 1.0 Mg
Mg28 1.0000000000 0.1767650018 0.1767650018 0.1767650018  Biso 1.0 Mg
Mg29 1.0000000000 0.1767650018 0.1767650018 0.4697049947  Biso 1.0 Mg
