# AFLOW.org Repositories
# Be13Er1   [FCC,FCC,cF112] (STD_PRIM doi:
data_Be13Er1
_pd_phase_name Be13Er1
_cell_length_a  7.1772629505
_cell_length_b  7.1772629505
_cell_length_c  7.1772629505
_cell_angle_alpha  60.0000000000
_cell_angle_beta  60.0000000000
_cell_angle_gamma  60.0000000000
_symmetry_space_group_name_H-M  'P1'
_symmetry_Int_Tables_Number  1
loop_
_symmetry_equiv_pos_site_id
_symmetry_equiv_pos_as_xyz
  1  x,y,z
loop_
 _atom_site_label
 _atom_site_occupancy
 _atom_site_fract_x
 _atom_site_fract_y
 _atom_site_fract_z
 _atom_site_thermal_displace_type
 _atom_site_B_iso_or_equiv
 _atom_site_type_symbol
Be1 1.0000000000 0.0000000000 0.0000000000 0.0000000000  Biso 1.0 Be
Be2 1.0000000000 0.5000000000 0.5000000000 0.5000000000  Biso 1.0 Be
Be3 1.0000000000 0.2907718021 0.9374429999 0.0625570001  Biso 1.0 Be
Be4 1.0000000000 0.0625570001 0.7092281979 0.2907718021  Biso 1.0 Be
Be5 1.0000000000 0.9374429999 0.2907718021 0.7092281979  Biso 1.0 Be
Be6 1.0000000000 0.7092281979 0.0625570001 0.9374429999  Biso 1.0 Be
Be7 1.0000000000 0.2907718021 0.7092281979 0.9374429999  Biso 1.0 Be
Be8 1.0000000000 0.0625570001 0.9374429999 0.7092281979  Biso 1.0 Be
Be9 1.0000000000 0.9374429999 0.0625570001 0.2907718021  Biso 1.0 Be
Be10 1.0000000000 0.7092281979 0.2907718021 0.0625570001  Biso 1.0 Be
Be11 1.0000000000 0.2907718021 0.0625570001 0.7092281979  Biso 1.0 Be
Be12 1.0000000000 0.0625570001 0.2907718021 0.9374429999  Biso 1.0 Be
Be13 1.0000000000 0.9374429999 0.7092281979 0.0625570001  Biso 1.0 Be
Be14 1.0000000000 0.7092281979 0.9374429999 0.2907718021  Biso 1.0 Be
Be15 1.0000000000 0.4374429999 0.5625570001 0.2092281979  Biso 1.0 Be
Be16 1.0000000000 0.2092281979 0.7907718021 0.4374429999  Biso 1.0 Be
Be17 1.0000000000 0.7907718021 0.2092281979 0.5625570001  Biso 1.0 Be
Be18 1.0000000000 0.5625570001 0.4374429999 0.7907718021  Biso 1.0 Be
Be19 1.0000000000 0.5625570001 0.7907718021 0.2092281979  Biso 1.0 Be
Be20 1.0000000000 0.7907718021 0.5625570001 0.4374429999  Biso 1.0 Be
Be21 1.0000000000 0.2092281979 0.4374429999 0.5625570001  Biso 1.0 Be
Be22 1.0000000000 0.4374429999 0.2092281979 0.7907718021  Biso 1.0 Be
Be23 1.0000000000 0.7907718021 0.4374429999 0.2092281979  Biso 1.0 Be
Be24 1.0000000000 0.5625570001 0.2092281979 0.4374429999  Biso 1.0 Be
Be25 1.0000000000 0.4374429999 0.7907718021 0.5625570001  Biso 1.0 Be
Be26 1.0000000000 0.2092281979 0.5625570001 0.7907718021  Biso 1.0 Be
Er27 1.0000000000 0.7500000000 0.7500000000 0.7500000000  Biso 1.0 Er
Er28 1.0000000000 0.2500000000 0.2500000000 0.2500000000  Biso 1.0 Er
