# AFLOW.org Repositories
# Be1C1N2   [ORC,ORC,oP16] (STD_PRIM doi:1
data_Be1C1N2
_pd_phase_name Be1C1N2
_cell_length_a  4.2528114059
_cell_length_b  4.4109867088
_cell_length_c  5.3052058898
_cell_angle_alpha  90.0000000000
_cell_angle_beta  90.0000000000
_cell_angle_gamma  90.0000000000
_symmetry_space_group_name_H-M  'P1'
_symmetry_Int_Tables_Number  1
loop_
_symmetry_equiv_pos_site_id
_symmetry_equiv_pos_as_xyz
  1  x,y,z
loop_
 _atom_site_label
 _atom_site_occupancy
 _atom_site_fract_x
 _atom_site_fract_y
 _atom_site_fract_z
 _atom_site_thermal_displace_type
 _atom_site_B_iso_or_equiv
 _atom_site_type_symbol
Be1 1.0000000000 0.0075512406 0.0857464471 0.3751004811  Biso 1.0 Be
Be2 1.0000000000 0.5075512406 0.9142535529 0.6248995189  Biso 1.0 Be
Be3 1.0000000000 0.0075512406 0.5857464471 0.1248995189  Biso 1.0 Be
Be4 1.0000000000 0.5075512406 0.4142535529 0.8751004811  Biso 1.0 Be
C5 1.0000000000 0.0065184931 0.0679120259 0.8750078204  Biso 1.0 C
C6 1.0000000000 0.5065184931 0.9320879741 0.1249921796  Biso 1.0 C
C7 1.0000000000 0.0065184931 0.5679120259 0.6249921796  Biso 1.0 C
C8 1.0000000000 0.5065184931 0.4320879741 0.3750078204  Biso 1.0 C
N9 1.0000000000 0.6518240963 0.0587984089 0.8967412642  Biso 1.0 N
N10 1.0000000000 0.1518240963 0.9412015911 0.1032587358  Biso 1.0 N
N11 1.0000000000 0.6518240963 0.5587984089 0.6032587358  Biso 1.0 N
N12 1.0000000000 0.1518240963 0.4412015911 0.3967412642  Biso 1.0 N
N13 1.0000000000 0.6088061700 0.1079841207 0.3523068420  Biso 1.0 N
N14 1.0000000000 0.1088061700 0.8920158793 0.6476931580  Biso 1.0 N
N15 1.0000000000 0.6088061700 0.6079841207 0.1476931580  Biso 1.0 N
N16 1.0000000000 0.1088061700 0.3920158793 0.8523068420  Biso 1.0 N
