# AFLOW.org Repositories
# Be1N2Si1   [ORC,ORC,oP16] (STD_PRIM doi:
data_Be1N2Si1
_pd_phase_name Be1N2Si1
_cell_length_a  4.7010821758
_cell_length_b  5.0010986045
_cell_length_c  5.7734524326
_cell_angle_alpha  90.0000000000
_cell_angle_beta  90.0000000000
_cell_angle_gamma  90.0000000000
_symmetry_space_group_name_H-M  'P1'
_symmetry_Int_Tables_Number  1
loop_
_symmetry_equiv_pos_site_id
_symmetry_equiv_pos_as_xyz
  1  x,y,z
loop_
 _atom_site_label
 _atom_site_occupancy
 _atom_site_fract_x
 _atom_site_fract_y
 _atom_site_fract_z
 _atom_site_thermal_displace_type
 _atom_site_B_iso_or_equiv
 _atom_site_type_symbol
Be1 1.0000000000 0.0000000000 0.0825955459 0.3748184986  Biso 1.0 Be
Be2 1.0000000000 0.5000876924 0.9174044541 0.6251815014  Biso 1.0 Be
Be3 1.0000000000 0.0000000000 0.5825955459 0.1251815014  Biso 1.0 Be
Be4 1.0000000000 0.5000876924 0.4174044541 0.8748184986  Biso 1.0 Be
N5 1.0000000000 0.6256728671 0.0800138594 0.8772899610  Biso 1.0 N
N6 1.0000000000 0.1256728671 0.9199861406 0.1227100390  Biso 1.0 N
N7 1.0000000000 0.6256728671 0.5800138594 0.6227100390  Biso 1.0 N
N8 1.0000000000 0.1256728671 0.4199861406 0.3772899610  Biso 1.0 N
N9 1.0000000000 0.6215006740 0.0847665460 0.3725950389  Biso 1.0 N
N10 1.0000000000 0.1215006740 0.9152334540 0.6274049611  Biso 1.0 N
N11 1.0000000000 0.6215006740 0.5847665460 0.1274049611  Biso 1.0 N
N12 1.0000000000 0.1215006740 0.4152334540 0.8725950389  Biso 1.0 N
Si13 1.0000000000 0.0000000000 0.0849493227 0.8749495353  Biso 1.0 Si
Si14 1.0000000000 0.5007387666 0.9150506773 0.1250504647  Biso 1.0 Si
Si15 1.0000000000 0.0000000000 0.5849493227 0.6250504647  Biso 1.0 Si
Si16 1.0000000000 0.5007387666 0.4150506773 0.3749495353  Biso 1.0 Si
