# AFLOW.org Repositories
# Be1O1   [TET,TET,tP8] (STD_PRIM doi:10.1
data_Be1O1
_pd_phase_name Be1O1
_cell_length_a  4.6417556125
_cell_length_b  4.6417556125
_cell_length_c  2.6993036702
_cell_angle_alpha  90.0000000000
_cell_angle_beta  90.0000000000
_cell_angle_gamma  90.0000000000
_symmetry_space_group_name_H-M  'P1'
_symmetry_Int_Tables_Number  1
loop_
_symmetry_equiv_pos_site_id
_symmetry_equiv_pos_as_xyz
  1  x,y,z
loop_
 _atom_site_label
 _atom_site_occupancy
 _atom_site_fract_x
 _atom_site_fract_y
 _atom_site_fract_z
 _atom_site_thermal_displace_type
 _atom_site_B_iso_or_equiv
 _atom_site_type_symbol
Be1 1.0000000000 0.3264006861 0.6735993139 0.0000000000  Biso 1.0 Be
Be2 1.0000000000 0.6735993139 0.3264006861 0.0000000000  Biso 1.0 Be
Be3 1.0000000000 0.8264006861 0.8264006861 0.5000000000  Biso 1.0 Be
Be4 1.0000000000 0.1735993139 0.1735993139 0.5000000000  Biso 1.0 Be
O5 1.0000000000 0.3114098112 0.3114098112 0.0000000000  Biso 1.0 O
O6 1.0000000000 0.6885901888 0.6885901888 0.0000000000  Biso 1.0 O
O7 1.0000000000 0.1885901888 0.8114098112 0.5000000000  Biso 1.0 O
O8 1.0000000000 0.8114098112 0.1885901888 0.5000000000  Biso 1.0 O
