# AFLOW.org Repositories
# Be1Ta2   [BCT,BCT1,tI12] (STD_PRIM doi:1
data_Be1Ta2
_pd_phase_name Be1Ta2
_cell_length_a  4.9671697362
_cell_length_b  4.9671697362
_cell_length_c  4.9671697362
_cell_angle_alpha  104.4062305496
_cell_angle_beta  104.4062305496
_cell_angle_gamma  120.1595445975
_symmetry_space_group_name_H-M  'P1'
_symmetry_Int_Tables_Number  1
loop_
_symmetry_equiv_pos_site_id
_symmetry_equiv_pos_as_xyz
  1  x,y,z
loop_
 _atom_site_label
 _atom_site_occupancy
 _atom_site_fract_x
 _atom_site_fract_y
 _atom_site_fract_z
 _atom_site_thermal_displace_type
 _atom_site_B_iso_or_equiv
 _atom_site_type_symbol
Be1 1.0000000000 0.7500000000 0.7500000000 0.0000000000  Biso 1.0 Be
Be2 1.0000000000 0.2500000000 0.2500000000 0.0000000000  Biso 1.0 Be
Ta3 1.0000000000 0.1610356675 0.6610356675 0.8220713351  Biso 1.0 Ta
Ta4 1.0000000000 0.8389643325 0.3389643325 0.1779286649  Biso 1.0 Ta
Ta5 1.0000000000 0.3389643325 0.1610356675 0.5000000000  Biso 1.0 Ta
Ta6 1.0000000000 0.6610356675 0.8389643325 0.5000000000  Biso 1.0 Ta
