# AFLOW.org Repositories
# Be3N2   [BCC,BCC,cI80] (STD_PRIM doi:10.
data_Be3N2
_pd_phase_name Be3N2
_cell_length_a  7.0573844031
_cell_length_b  7.0573844031
_cell_length_c  7.0573844031
_cell_angle_alpha  109.4712206345
_cell_angle_beta  109.4712206345
_cell_angle_gamma  109.4712206345
_symmetry_space_group_name_H-M  'P1'
_symmetry_Int_Tables_Number  1
loop_
_symmetry_equiv_pos_site_id
_symmetry_equiv_pos_as_xyz
  1  x,y,z
loop_
 _atom_site_label
 _atom_site_occupancy
 _atom_site_fract_x
 _atom_site_fract_y
 _atom_site_fract_z
 _atom_site_thermal_displace_type
 _atom_site_B_iso_or_equiv
 _atom_site_type_symbol
Be1 1.0000000000 0.7654909312 0.2336743132 0.7595452276  Biso 1.0 Be
Be2 1.0000000000 0.9741290856 0.0059457035 0.7404547724  Biso 1.0 Be
Be3 1.0000000000 0.5258709144 0.2663256868 0.0318166180  Biso 1.0 Be
Be4 1.0000000000 0.7345090688 0.4940542965 0.4681833820  Biso 1.0 Be
Be5 1.0000000000 0.2404547724 0.4741290856 0.0059457035  Biso 1.0 Be
Be6 1.0000000000 0.2595452276 0.2654909312 0.2336743132  Biso 1.0 Be
Be7 1.0000000000 0.9681833820 0.2345090688 0.4940542965  Biso 1.0 Be
Be8 1.0000000000 0.5318166180 0.0258709144 0.2663256868  Biso 1.0 Be
Be9 1.0000000000 0.9940542965 0.4681833820 0.2345090688  Biso 1.0 Be
Be10 1.0000000000 0.7663256868 0.0318166180 0.0258709144  Biso 1.0 Be
Be11 1.0000000000 0.5059457035 0.7404547724 0.4741290856  Biso 1.0 Be
Be12 1.0000000000 0.7336743132 0.7595452276 0.2654909312  Biso 1.0 Be
Be13 1.0000000000 0.2345090688 0.7663256868 0.2404547724  Biso 1.0 Be
Be14 1.0000000000 0.0258709144 0.9940542965 0.2595452276  Biso 1.0 Be
Be15 1.0000000000 0.4741290856 0.7336743132 0.9681833820  Biso 1.0 Be
Be16 1.0000000000 0.2654909312 0.5059457035 0.5318166180  Biso 1.0 Be
Be17 1.0000000000 0.7595452276 0.5258709144 0.9940542965  Biso 1.0 Be
Be18 1.0000000000 0.7404547724 0.7345090688 0.7663256868  Biso 1.0 Be
Be19 1.0000000000 0.0318166180 0.7654909312 0.5059457035  Biso 1.0 Be
Be20 1.0000000000 0.4681833820 0.9741290856 0.7336743132  Biso 1.0 Be
Be21 1.0000000000 0.0059457035 0.5318166180 0.7654909312  Biso 1.0 Be
Be22 1.0000000000 0.2336743132 0.9681833820 0.9741290856  Biso 1.0 Be
Be23 1.0000000000 0.4940542965 0.2595452276 0.5258709144  Biso 1.0 Be
Be24 1.0000000000 0.2663256868 0.2404547724 0.7345090688  Biso 1.0 Be
N25 1.0000000000 0.7500000000 0.7708735713 0.0208735713  Biso 1.0 N
N26 1.0000000000 0.2500000000 0.7291264287 0.4791264287  Biso 1.0 N
N27 1.0000000000 0.9791264287 0.7500000000 0.7291264287  Biso 1.0 N
N28 1.0000000000 0.5208735713 0.2500000000 0.7708735713  Biso 1.0 N
N29 1.0000000000 0.2708735713 0.0208735713 0.2500000000  Biso 1.0 N
N30 1.0000000000 0.2291264287 0.4791264287 0.7500000000  Biso 1.0 N
N31 1.0000000000 0.2500000000 0.2291264287 0.9791264287  Biso 1.0 N
N32 1.0000000000 0.7500000000 0.2708735713 0.5208735713  Biso 1.0 N
N33 1.0000000000 0.0208735713 0.2500000000 0.2708735713  Biso 1.0 N
N34 1.0000000000 0.4791264287 0.7500000000 0.2291264287  Biso 1.0 N
N35 1.0000000000 0.7291264287 0.9791264287 0.7500000000  Biso 1.0 N
N36 1.0000000000 0.7708735713 0.5208735713 0.2500000000  Biso 1.0 N
N37 1.0000000000 0.0000000000 0.5000000000 0.0000000000  Biso 1.0 N
N38 1.0000000000 0.0000000000 0.0000000000 0.5000000000  Biso 1.0 N
N39 1.0000000000 0.5000000000 0.0000000000 0.0000000000  Biso 1.0 N
N40 1.0000000000 0.5000000000 0.5000000000 0.5000000000  Biso 1.0 N
