# AFLOW.org Repositories
# Be3P2   [BCC,BCC,cI80] (STD_PRIM doi:10.
data_Be3P2
_pd_phase_name Be3P2
_cell_length_a  8.8303538603
_cell_length_b  8.8303538603
_cell_length_c  8.8303538603
_cell_angle_alpha  109.4712206345
_cell_angle_beta  109.4712206345
_cell_angle_gamma  109.4712206345
_symmetry_space_group_name_H-M  'P1'
_symmetry_Int_Tables_Number  1
loop_
_symmetry_equiv_pos_site_id
_symmetry_equiv_pos_as_xyz
  1  x,y,z
loop_
 _atom_site_label
 _atom_site_occupancy
 _atom_site_fract_x
 _atom_site_fract_y
 _atom_site_fract_z
 _atom_site_thermal_displace_type
 _atom_site_B_iso_or_equiv
 _atom_site_type_symbol
Be1 1.0000000000 0.9951080306 0.5042703423 0.7510798781  Biso 1.0 Be
Be2 1.0000000000 0.7531904642 0.7440281525 0.7489201219  Biso 1.0 Be
Be3 1.0000000000 0.5048919694 0.7559718475 0.0091623117  Biso 1.0 Be
Be4 1.0000000000 0.7468095358 0.9957296577 0.4908376883  Biso 1.0 Be
Be5 1.0000000000 0.7559718475 0.5091623117 0.0048919694  Biso 1.0 Be
Be6 1.0000000000 0.9957296577 0.9908376883 0.2468095358  Biso 1.0 Be
Be7 1.0000000000 0.5042703423 0.2510798781 0.4951080306  Biso 1.0 Be
Be8 1.0000000000 0.7440281525 0.2489201219 0.2531904642  Biso 1.0 Be
Be9 1.0000000000 0.2489201219 0.7531904642 0.2440281525  Biso 1.0 Be
Be10 1.0000000000 0.2510798781 0.9951080306 0.0042703423  Biso 1.0 Be
Be11 1.0000000000 0.9908376883 0.7468095358 0.4957296577  Biso 1.0 Be
Be12 1.0000000000 0.5091623117 0.5048919694 0.2559718475  Biso 1.0 Be
Be13 1.0000000000 0.0048919694 0.4957296577 0.2489201219  Biso 1.0 Be
Be14 1.0000000000 0.2468095358 0.2559718475 0.2510798781  Biso 1.0 Be
Be15 1.0000000000 0.4951080306 0.2440281525 0.9908376883  Biso 1.0 Be
Be16 1.0000000000 0.2531904642 0.0042703423 0.5091623117  Biso 1.0 Be
Be17 1.0000000000 0.2440281525 0.4908376883 0.9951080306  Biso 1.0 Be
Be18 1.0000000000 0.0042703423 0.0091623117 0.7531904642  Biso 1.0 Be
Be19 1.0000000000 0.4957296577 0.7489201219 0.5048919694  Biso 1.0 Be
Be20 1.0000000000 0.2559718475 0.7510798781 0.7468095358  Biso 1.0 Be
Be21 1.0000000000 0.7510798781 0.2468095358 0.7559718475  Biso 1.0 Be
Be22 1.0000000000 0.7489201219 0.0048919694 0.9957296577  Biso 1.0 Be
Be23 1.0000000000 0.0091623117 0.2531904642 0.5042703423  Biso 1.0 Be
Be24 1.0000000000 0.4908376883 0.4951080306 0.7440281525  Biso 1.0 Be
P25 1.0000000000 0.0000000000 0.5000000000 0.0000000000  Biso 1.0 P
P26 1.0000000000 0.5000000000 0.5000000000 0.5000000000  Biso 1.0 P
P27 1.0000000000 0.5000000000 0.0000000000 0.0000000000  Biso 1.0 P
P28 1.0000000000 0.0000000000 0.0000000000 0.5000000000  Biso 1.0 P
P29 1.0000000000 0.2557163409 0.2500000000 0.0057163409  Biso 1.0 P
P30 1.0000000000 0.2442836591 0.7500000000 0.4942836591  Biso 1.0 P
P31 1.0000000000 0.7500000000 0.9942836591 0.7442836591  Biso 1.0 P
P32 1.0000000000 0.2500000000 0.5057163409 0.7557163409  Biso 1.0 P
P33 1.0000000000 0.9942836591 0.2442836591 0.2500000000  Biso 1.0 P
P34 1.0000000000 0.5057163409 0.2557163409 0.7500000000  Biso 1.0 P
P35 1.0000000000 0.7442836591 0.7500000000 0.9942836591  Biso 1.0 P
P36 1.0000000000 0.7557163409 0.2500000000 0.5057163409  Biso 1.0 P
P37 1.0000000000 0.2500000000 0.0057163409 0.2557163409  Biso 1.0 P
P38 1.0000000000 0.7500000000 0.4942836591 0.2442836591  Biso 1.0 P
P39 1.0000000000 0.0057163409 0.7557163409 0.7500000000  Biso 1.0 P
P40 1.0000000000 0.4942836591 0.7442836591 0.2500000000  Biso 1.0 P
