# AFLOW.org Repositories
# Be4Ca2N4   [BCT,BCT2,tI20] (STD_PRIM doi
data_Be4Ca2N4
_pd_phase_name Be4Ca2N4
_cell_length_a  5.2279537837
_cell_length_b  5.2279537837
_cell_length_c  5.2279537837
_cell_angle_alpha  115.7915456359
_cell_angle_beta  115.7915456359
_cell_angle_gamma  97.4582378596
_symmetry_space_group_name_H-M  'P1'
_symmetry_Int_Tables_Number  1
loop_
_symmetry_equiv_pos_site_id
_symmetry_equiv_pos_as_xyz
  1  x,y,z
loop_
 _atom_site_label
 _atom_site_occupancy
 _atom_site_fract_x
 _atom_site_fract_y
 _atom_site_fract_z
 _atom_site_thermal_displace_type
 _atom_site_B_iso_or_equiv
 _atom_site_type_symbol
Be1 1.0000000000 0.6262199646 0.8737800354 0.5000000000  Biso 1.0 Be
Be2 1.0000000000 0.3737800354 0.1262199646 0.5000000000  Biso 1.0 Be
Be3 1.0000000000 0.8737800354 0.3737800354 0.2475600709  Biso 1.0 Be
Be4 1.0000000000 0.1262199646 0.6262199646 0.7524399291  Biso 1.0 Be
Ca5 1.0000000000 0.2500000000 0.2500000000 0.0000000000  Biso 1.0 Ca
Ca6 1.0000000000 0.7500000000 0.7500000000 0.0000000000  Biso 1.0 Ca
N7 1.0000000000 0.1694247275 0.3305752725 0.5000000000  Biso 1.0 N
N8 1.0000000000 0.8305752725 0.6694247275 0.5000000000  Biso 1.0 N
N9 1.0000000000 0.3305752725 0.8305752725 0.1611505450  Biso 1.0 N
N10 1.0000000000 0.6694247275 0.1694247275 0.8388494550  Biso 1.0 N
