# AFLOW.org Repositories
# Be5Pt1   [FCC,FCC,cF24] (STD_PRIM doi:10
data_Be5Pt1
_pd_phase_name Be5Pt1
_cell_length_a  4.2202102019
_cell_length_b  4.2202102019
_cell_length_c  4.2202102019
_cell_angle_alpha  60.0000000000
_cell_angle_beta  60.0000000000
_cell_angle_gamma  60.0000000000
_symmetry_space_group_name_H-M  'P1'
_symmetry_Int_Tables_Number  1
loop_
_symmetry_equiv_pos_site_id
_symmetry_equiv_pos_as_xyz
  1  x,y,z
loop_
 _atom_site_label
 _atom_site_occupancy
 _atom_site_fract_x
 _atom_site_fract_y
 _atom_site_fract_z
 _atom_site_thermal_displace_type
 _atom_site_B_iso_or_equiv
 _atom_site_type_symbol
Be1 1.0000000000 0.7500000000 0.7500000000 0.7500000000  Biso 1.0 Be
Be2 1.0000000000 0.3754309118 0.3754309118 0.3754309118  Biso 1.0 Be
Be3 1.0000000000 0.3754309118 0.3754309118 0.8737072647  Biso 1.0 Be
Be4 1.0000000000 0.8737072647 0.3754309118 0.3754309118  Biso 1.0 Be
Be5 1.0000000000 0.3754309118 0.8737072647 0.3754309118  Biso 1.0 Be
Pt6 1.0000000000 0.0000000000 0.0000000000 0.0000000000  Biso 1.0 Pt
