# AFLOW.org Repositories
# Bi1   [BCT,BCT1,tI8] (STD_PRIM doi:10.10
data_Bi1
_pd_phase_name Bi1
_cell_length_a  6.5252390041
_cell_length_b  6.5252390041
_cell_length_c  6.5252390041
_cell_angle_alpha  95.9163098701
_cell_angle_beta  95.9163098701
_cell_angle_gamma  142.5466406012
_symmetry_space_group_name_H-M  'P1'
_symmetry_Int_Tables_Number  1
loop_
_symmetry_equiv_pos_site_id
_symmetry_equiv_pos_as_xyz
  1  x,y,z
loop_
 _atom_site_label
 _atom_site_occupancy
 _atom_site_fract_x
 _atom_site_fract_y
 _atom_site_fract_z
 _atom_site_thermal_displace_type
 _atom_site_B_iso_or_equiv
 _atom_site_type_symbol
Bi1 1.0000000000 0.3531309060 0.1468690940 0.5000000000  Biso 1.0 Bi
Bi2 1.0000000000 0.6468690940 0.8531309060 0.5000000000  Biso 1.0 Bi
Bi3 1.0000000000 0.8531309060 0.3531309060 0.2062618121  Biso 1.0 Bi
Bi4 1.0000000000 0.1468690940 0.6468690940 0.7937381879  Biso 1.0 Bi
