# AFLOW.org Repositories
# Bi1Ca1Cu1   [HEX,HEX,hP6] (STD_PRIM doi:
data_Bi1Ca1Cu1
_pd_phase_name Bi1Ca1Cu1
_cell_length_a  4.6096505668
_cell_length_b  4.6096505668
_cell_length_c  8.1691654021
_cell_angle_alpha  90.0000000000
_cell_angle_beta  90.0000000000
_cell_angle_gamma  120.0000000000
_symmetry_space_group_name_H-M  'P1'
_symmetry_Int_Tables_Number  1
loop_
_symmetry_equiv_pos_site_id
_symmetry_equiv_pos_as_xyz
  1  x,y,z
loop_
 _atom_site_label
 _atom_site_occupancy
 _atom_site_fract_x
 _atom_site_fract_y
 _atom_site_fract_z
 _atom_site_thermal_displace_type
 _atom_site_B_iso_or_equiv
 _atom_site_type_symbol
Bi1 1.0000000000 0.3333218025 0.6666609012 0.7500000000  Biso 1.0 Bi
Bi2 1.0000000000 0.6666781975 0.3333390988 0.2500000000  Biso 1.0 Bi
Ca3 1.0000000000 0.0000000000 0.0000000000 0.0000000000  Biso 1.0 Ca
Ca4 1.0000000000 0.0000000000 0.0000000000 0.5000000000  Biso 1.0 Ca
Cu5 1.0000000000 0.3333436227 0.6666718113 0.2500000000  Biso 1.0 Cu
Cu6 1.0000000000 0.6666563773 0.3333281887 0.7500000000  Biso 1.0 Cu
