# AFLOW.org Repositories
# Bi1Ca2   [BCT,BCT2,tI12] (STD_PRIM doi:1
data_Bi1Ca2
_pd_phase_name Bi1Ca2
_cell_length_a  9.2667872423
_cell_length_b  9.2667872423
_cell_length_c  9.2667872423
_cell_angle_alpha  149.1751391254
_cell_angle_beta  149.1751391254
_cell_angle_gamma  44.1535738855
_symmetry_space_group_name_H-M  'P1'
_symmetry_Int_Tables_Number  1
loop_
_symmetry_equiv_pos_site_id
_symmetry_equiv_pos_as_xyz
  1  x,y,z
loop_
 _atom_site_label
 _atom_site_occupancy
 _atom_site_fract_x
 _atom_site_fract_y
 _atom_site_fract_z
 _atom_site_thermal_displace_type
 _atom_site_B_iso_or_equiv
 _atom_site_type_symbol
Bi1 1.0000000000 0.8621716241 0.8621716241 0.0000000000  Biso 1.0 Bi
Bi2 1.0000000000 0.1378283759 0.1378283759 0.0000000000  Biso 1.0 Bi
Ca3 1.0000000000 0.5000000000 0.0000000000 0.5000000000  Biso 1.0 Ca
Ca4 1.0000000000 0.0000000000 0.5000000000 0.5000000000  Biso 1.0 Ca
Ca5 1.0000000000 0.6724889334 0.6724889334 0.0000000000  Biso 1.0 Ca
Ca6 1.0000000000 0.3275110666 0.3275110666 0.0000000000  Biso 1.0 Ca
