# AFLOW.org Repositories
# Bi1Cr1O3   [ORC,ORC,oP20] (STD_PRIM doi:
data_Bi1Cr1O3
_pd_phase_name Bi1Cr1O3
_cell_length_a  5.4733604708
_cell_length_b  5.6800574603
_cell_length_c  7.8465720748
_cell_angle_alpha  90.0000000000
_cell_angle_beta  90.0000000000
_cell_angle_gamma  90.0000000000
_symmetry_space_group_name_H-M  'P1'
_symmetry_Int_Tables_Number  1
loop_
_symmetry_equiv_pos_site_id
_symmetry_equiv_pos_as_xyz
  1  x,y,z
loop_
 _atom_site_label
 _atom_site_occupancy
 _atom_site_fract_x
 _atom_site_fract_y
 _atom_site_fract_z
 _atom_site_thermal_displace_type
 _atom_site_B_iso_or_equiv
 _atom_site_type_symbol
Bi1 1.0000000000 0.0090485865 0.0492769113 0.7500000000  Biso 1.0 Bi
Bi2 1.0000000000 0.5090485865 0.4507230887 0.2500000000  Biso 1.0 Bi
Bi3 1.0000000000 0.9909514135 0.9507230887 0.2500000000  Biso 1.0 Bi
Bi4 1.0000000000 0.4909514135 0.5492769113 0.7500000000  Biso 1.0 Bi
Cr5 1.0000000000 0.5000000000 0.0000000000 0.0000000000  Biso 1.0 Cr
Cr6 1.0000000000 0.0000000000 0.5000000000 0.0000000000  Biso 1.0 Cr
Cr7 1.0000000000 0.5000000000 0.0000000000 0.5000000000  Biso 1.0 Cr
Cr8 1.0000000000 0.0000000000 0.5000000000 0.5000000000  Biso 1.0 Cr
O9 1.0000000000 0.9060887483 0.4720869820 0.7500000000  Biso 1.0 O
O10 1.0000000000 0.4060887483 0.0279130180 0.2500000000  Biso 1.0 O
O11 1.0000000000 0.0939112517 0.5279130180 0.2500000000  Biso 1.0 O
O12 1.0000000000 0.5939112517 0.9720869820 0.7500000000  Biso 1.0 O
O13 1.0000000000 0.3038138850 0.2995015134 0.9546909461  Biso 1.0 O
O14 1.0000000000 0.8038138850 0.2004984866 0.0453090539  Biso 1.0 O
O15 1.0000000000 0.6961861150 0.7004984866 0.4546909461  Biso 1.0 O
O16 1.0000000000 0.1961861150 0.7995015134 0.5453090539  Biso 1.0 O
O17 1.0000000000 0.6961861150 0.7004984866 0.0453090539  Biso 1.0 O
O18 1.0000000000 0.1961861150 0.7995015134 0.9546909461  Biso 1.0 O
O19 1.0000000000 0.3038138850 0.2995015134 0.5453090539  Biso 1.0 O
O20 1.0000000000 0.8038138850 0.2004984866 0.4546909461  Biso 1.0 O
