# AFLOW.org Repositories
# Bi1Ga1O3   [ORC,ORC,oP20] (STD_PRIM doi:
data_Bi1Ga1O3
_pd_phase_name Bi1Ga1O3
_cell_length_a  5.1885967331
_cell_length_b  5.4941886228
_cell_length_c  10.0889598848
_cell_angle_alpha  90.0000000000
_cell_angle_beta  90.0000000000
_cell_angle_gamma  90.0000000000
_symmetry_space_group_name_H-M  'P1'
_symmetry_Int_Tables_Number  1
loop_
_symmetry_equiv_pos_site_id
_symmetry_equiv_pos_as_xyz
  1  x,y,z
loop_
 _atom_site_label
 _atom_site_occupancy
 _atom_site_fract_x
 _atom_site_fract_y
 _atom_site_fract_z
 _atom_site_thermal_displace_type
 _atom_site_B_iso_or_equiv
 _atom_site_type_symbol
Bi1 1.0000000000 0.0000000000 0.2500000000 0.3903505828  Biso 1.0 Bi
Bi2 1.0000000000 0.0000000000 0.7500000000 0.1096494172  Biso 1.0 Bi
Bi3 1.0000000000 0.0000000000 0.7500000000 0.6096494172  Biso 1.0 Bi
Bi4 1.0000000000 0.0000000000 0.2500000000 0.8903505828  Biso 1.0 Bi
Ga5 1.0000000000 0.5000000000 0.2500000000 0.6439452183  Biso 1.0 Ga
Ga6 1.0000000000 0.5000000000 0.7500000000 0.8560547817  Biso 1.0 Ga
Ga7 1.0000000000 0.5000000000 0.7500000000 0.3560547817  Biso 1.0 Ga
Ga8 1.0000000000 0.5000000000 0.2500000000 0.1439452183  Biso 1.0 Ga
O9 1.0000000000 0.6436463132 0.0000000000 0.7500000000  Biso 1.0 O
O10 1.0000000000 0.3563536868 0.5000000000 0.7500000000  Biso 1.0 O
O11 1.0000000000 0.3563536868 0.0000000000 0.2500000000  Biso 1.0 O
O12 1.0000000000 0.6436463132 0.5000000000 0.2500000000  Biso 1.0 O
O13 1.0000000000 0.2321443373 0.9033378202 0.9461236161  Biso 1.0 O
O14 1.0000000000 0.7678556627 0.5966621798 0.9461236161  Biso 1.0 O
O15 1.0000000000 0.2321443373 0.0966621798 0.5538763839  Biso 1.0 O
O16 1.0000000000 0.7678556627 0.4033378202 0.5538763839  Biso 1.0 O
O17 1.0000000000 0.7678556627 0.0966621798 0.0538763839  Biso 1.0 O
O18 1.0000000000 0.2321443373 0.4033378202 0.0538763839  Biso 1.0 O
O19 1.0000000000 0.7678556627 0.9033378202 0.4461236161  Biso 1.0 O
O20 1.0000000000 0.2321443373 0.5966621798 0.4461236161  Biso 1.0 O
