# AFLOW.org Repositories
# Bi1In1O3   [ORC,ORC,oP20] (STD_PRIM doi:
data_Bi1In1O3
_pd_phase_name Bi1In1O3
_cell_length_a  5.6648714023
_cell_length_b  6.0691826909
_cell_length_c  8.1899691243
_cell_angle_alpha  90.0000000000
_cell_angle_beta  90.0000000000
_cell_angle_gamma  90.0000000000
_symmetry_space_group_name_H-M  'P1'
_symmetry_Int_Tables_Number  1
loop_
_symmetry_equiv_pos_site_id
_symmetry_equiv_pos_as_xyz
  1  x,y,z
loop_
 _atom_site_label
 _atom_site_occupancy
 _atom_site_fract_x
 _atom_site_fract_y
 _atom_site_fract_z
 _atom_site_thermal_displace_type
 _atom_site_B_iso_or_equiv
 _atom_site_type_symbol
Bi1 1.0000000000 0.0113140328 0.0448068829 0.2500000000  Biso 1.0 Bi
Bi2 1.0000000000 0.5113140328 0.4551931171 0.7500000000  Biso 1.0 Bi
Bi3 1.0000000000 0.9886859672 0.9551931171 0.7500000000  Biso 1.0 Bi
Bi4 1.0000000000 0.4886859672 0.5448068829 0.2500000000  Biso 1.0 Bi
In5 1.0000000000 0.5000000000 0.0000000000 0.0000000000  Biso 1.0 In
In6 1.0000000000 0.0000000000 0.5000000000 0.0000000000  Biso 1.0 In
In7 1.0000000000 0.5000000000 0.0000000000 0.5000000000  Biso 1.0 In
In8 1.0000000000 0.0000000000 0.5000000000 0.5000000000  Biso 1.0 In
O9 1.0000000000 0.6307420185 0.9526832818 0.2500000000  Biso 1.0 O
O10 1.0000000000 0.1307420185 0.5473167182 0.7500000000  Biso 1.0 O
O11 1.0000000000 0.3692579815 0.0473167182 0.7500000000  Biso 1.0 O
O12 1.0000000000 0.8692579815 0.4526832818 0.2500000000  Biso 1.0 O
O13 1.0000000000 0.8264156308 0.1847547993 0.5576812203  Biso 1.0 O
O14 1.0000000000 0.3264156308 0.3152452007 0.4423187797  Biso 1.0 O
O15 1.0000000000 0.1735843692 0.8152452007 0.0576812203  Biso 1.0 O
O16 1.0000000000 0.6735843692 0.6847547993 0.9423187797  Biso 1.0 O
O17 1.0000000000 0.1735843692 0.8152452007 0.4423187797  Biso 1.0 O
O18 1.0000000000 0.6735843692 0.6847547993 0.5576812203  Biso 1.0 O
O19 1.0000000000 0.8264156308 0.1847547993 0.9423187797  Biso 1.0 O
O20 1.0000000000 0.3264156308 0.3152452007 0.0576812203  Biso 1.0 O
