# AFLOW.org Repositories
# Bi1Ir1S1   [CUB,CUB,cP12] (STD_PRIM doi:
data_Bi1Ir1S1
_pd_phase_name Bi1Ir1S1
_cell_length_a  6.2122323289
_cell_length_b  6.2122323289
_cell_length_c  6.2122323289
_cell_angle_alpha  90.0000000000
_cell_angle_beta  90.0000000000
_cell_angle_gamma  90.0000000000
_symmetry_space_group_name_H-M  'P1'
_symmetry_Int_Tables_Number  1
loop_
_symmetry_equiv_pos_site_id
_symmetry_equiv_pos_as_xyz
  1  x,y,z
loop_
 _atom_site_label
 _atom_site_occupancy
 _atom_site_fract_x
 _atom_site_fract_y
 _atom_site_fract_z
 _atom_site_thermal_displace_type
 _atom_site_B_iso_or_equiv
 _atom_site_type_symbol
Bi1 1.0000000000 0.6300815967 0.6300815967 0.3699184033  Biso 1.0 Bi
Bi2 1.0000000000 0.8699184033 0.3699184033 0.8699184033  Biso 1.0 Bi
Bi3 1.0000000000 0.3699184033 0.1300815967 0.1300815967  Biso 1.0 Bi
Bi4 1.0000000000 0.1300815967 0.8699184033 0.6300815967  Biso 1.0 Bi
Ir5 1.0000000000 0.9766895858 0.9766895858 0.0233104142  Biso 1.0 Ir
Ir6 1.0000000000 0.5233104142 0.0233104142 0.5233104142  Biso 1.0 Ir
Ir7 1.0000000000 0.0233104142 0.4766895858 0.4766895858  Biso 1.0 Ir
Ir8 1.0000000000 0.4766895858 0.5233104142 0.9766895858  Biso 1.0 Ir
S9 1.0000000000 0.3832976685 0.3832976685 0.6167023315  Biso 1.0 S
S10 1.0000000000 0.1167023315 0.6167023315 0.1167023315  Biso 1.0 S
S11 1.0000000000 0.6167023315 0.8832976685 0.8832976685  Biso 1.0 S
S12 1.0000000000 0.8832976685 0.1167023315 0.3832976685  Biso 1.0 S
