# AFLOW.org Repositories
# Bi1K3   [HEX,HEX,hP8] (STD_PRIM doi:10.1
data_Bi1K3
_pd_phase_name Bi1K3
_cell_length_a  6.2375994691
_cell_length_b  6.2375994691
_cell_length_c  11.1111554737
_cell_angle_alpha  90.0000000000
_cell_angle_beta  90.0000000000
_cell_angle_gamma  120.0000000000
_symmetry_space_group_name_H-M  'P1'
_symmetry_Int_Tables_Number  1
loop_
_symmetry_equiv_pos_site_id
_symmetry_equiv_pos_as_xyz
  1  x,y,z
loop_
 _atom_site_label
 _atom_site_occupancy
 _atom_site_fract_x
 _atom_site_fract_y
 _atom_site_fract_z
 _atom_site_thermal_displace_type
 _atom_site_B_iso_or_equiv
 _atom_site_type_symbol
Bi1 1.0000000000 0.6666771304 0.3333542608 0.2500000000  Biso 1.0 Bi
Bi2 1.0000000000 0.3333228696 0.6666457392 0.7500000000  Biso 1.0 Bi
K3 1.0000000000 0.0000000000 0.0000000000 0.2500000000  Biso 1.0 K
K4 1.0000000000 0.0000000000 0.0000000000 0.7500000000  Biso 1.0 K
K5 1.0000000000 0.6666787449 0.3333574898 0.5809590291  Biso 1.0 K
K6 1.0000000000 0.3333212551 0.6666425102 0.0809590291  Biso 1.0 K
K7 1.0000000000 0.3333212551 0.6666425102 0.4190409709  Biso 1.0 K
K8 1.0000000000 0.6666787449 0.3333574898 0.9190409709  Biso 1.0 K
