# AFLOW.org Repositories
# Bi1K3Te3   [CUB,CUB,cP28] (STD_PRIM doi:
data_Bi1K3Te3
_pd_phase_name Bi1K3Te3
_cell_length_a  10.5238126645
_cell_length_b  10.5238126645
_cell_length_c  10.5238126645
_cell_angle_alpha  90.0000000000
_cell_angle_beta  90.0000000000
_cell_angle_gamma  90.0000000000
_symmetry_space_group_name_H-M  'P1'
_symmetry_Int_Tables_Number  1
loop_
_symmetry_equiv_pos_site_id
_symmetry_equiv_pos_as_xyz
  1  x,y,z
loop_
 _atom_site_label
 _atom_site_occupancy
 _atom_site_fract_x
 _atom_site_fract_y
 _atom_site_fract_z
 _atom_site_thermal_displace_type
 _atom_site_B_iso_or_equiv
 _atom_site_type_symbol
Bi1 1.0000000000 0.9644427937 0.9644427937 0.0355572063  Biso 1.0 Bi
Bi2 1.0000000000 0.5355344752 0.0355513575 0.5355495339  Biso 1.0 Bi
Bi3 1.0000000000 0.0355513575 0.4644504661 0.4644655248  Biso 1.0 Bi
Bi4 1.0000000000 0.4644504661 0.5355344752 0.9644486425  Biso 1.0 Bi
K5 1.0000000000 0.4251935389 0.4251935389 0.5748064611  Biso 1.0 K
K6 1.0000000000 0.0748065264 0.5748033766 0.0748073826  Biso 1.0 K
K7 1.0000000000 0.5748033766 0.9251926174 0.9251934736  Biso 1.0 K
K8 1.0000000000 0.9251926174 0.0748065264 0.4251966234  Biso 1.0 K
K9 1.0000000000 0.6737595121 0.6737595121 0.3262404879  Biso 1.0 K
K10 1.0000000000 0.8262701675 0.3262402772 0.8262574843  Biso 1.0 K
K11 1.0000000000 0.3262402772 0.1737425157 0.1737298325  Biso 1.0 K
K12 1.0000000000 0.1737425157 0.8262701675 0.6737597228  Biso 1.0 K
K13 1.0000000000 0.1824957630 0.1824957630 0.8175042370  Biso 1.0 K
K14 1.0000000000 0.3175314309 0.8174996069 0.3175184392  Biso 1.0 K
K15 1.0000000000 0.8174996069 0.6824815608 0.6824685691  Biso 1.0 K
K16 1.0000000000 0.6824815608 0.3175314309 0.1825003931  Biso 1.0 K
Te17 1.0000000000 0.7729274518 0.3824187111 0.5000662992  Biso 1.0 Te
Te18 1.0000000000 0.7270676758 0.6175966450 0.0000000000  Biso 1.0 Te
Te19 1.0000000000 0.2270699828 0.8824180021 0.0000000000  Biso 1.0 Te
Te20 1.0000000000 0.2729124324 0.1176012072 0.4999343954  Biso 1.0 Te
Te21 1.0000000000 0.4999337008 0.7729274518 0.6175812889  Biso 1.0 Te
Te22 1.0000000000 0.0000000000 0.7270676758 0.3824033550  Biso 1.0 Te
Te23 1.0000000000 0.0000000000 0.2270699828 0.1175819979  Biso 1.0 Te
Te24 1.0000000000 0.5000656046 0.2729124324 0.8823987928  Biso 1.0 Te
Te25 1.0000000000 0.3824187111 0.4999337008 0.2270725482  Biso 1.0 Te
Te26 1.0000000000 0.6175966450 0.0000000000 0.2729323242  Biso 1.0 Te
Te27 1.0000000000 0.8824180021 0.0000000000 0.7729300172  Biso 1.0 Te
Te28 1.0000000000 0.1176012072 0.5000656046 0.7270875676  Biso 1.0 Te
