# AFLOW.org Repositories
# Bi1K3Se3   [CUB,CUB,cP28] (STD_PRIM doi:
data_Bi1K3Se3
_pd_phase_name Bi1K3Se3
_cell_length_a  9.9292947673
_cell_length_b  9.9292947673
_cell_length_c  9.9292947673
_cell_angle_alpha  90.0000000000
_cell_angle_beta  90.0000000000
_cell_angle_gamma  90.0000000000
_symmetry_space_group_name_H-M  'P1'
_symmetry_Int_Tables_Number  1
loop_
_symmetry_equiv_pos_site_id
_symmetry_equiv_pos_as_xyz
  1  x,y,z
loop_
 _atom_site_label
 _atom_site_occupancy
 _atom_site_fract_x
 _atom_site_fract_y
 _atom_site_fract_z
 _atom_site_thermal_displace_type
 _atom_site_B_iso_or_equiv
 _atom_site_type_symbol
Bi1 1.0000000000 0.9655741420 0.9655741420 0.0344258580  Biso 1.0 Bi
Bi2 1.0000000000 0.5344258580 0.0344258580 0.5344258580  Biso 1.0 Bi
Bi3 1.0000000000 0.0344258580 0.4655741420 0.4655741420  Biso 1.0 Bi
Bi4 1.0000000000 0.4655741420 0.5344258580 0.9655741420  Biso 1.0 Bi
K5 1.0000000000 0.6781232406 0.6781232406 0.3218767594  Biso 1.0 K
K6 1.0000000000 0.8218767594 0.3218767594 0.8218767594  Biso 1.0 K
K7 1.0000000000 0.3218767594 0.1781232406 0.1781232406  Biso 1.0 K
K8 1.0000000000 0.1781232406 0.8218767594 0.6781232406  Biso 1.0 K
K9 1.0000000000 0.4275892241 0.4275892241 0.5724107759  Biso 1.0 K
K10 1.0000000000 0.0724107759 0.5724107759 0.0724107759  Biso 1.0 K
K11 1.0000000000 0.5724107759 0.9275892241 0.9275892241  Biso 1.0 K
K12 1.0000000000 0.9275892241 0.0724107759 0.4275892241  Biso 1.0 K
K13 1.0000000000 0.1861884601 0.1861884601 0.8138115399  Biso 1.0 K
K14 1.0000000000 0.3138115399 0.8138115399 0.3138115399  Biso 1.0 K
K15 1.0000000000 0.8138115399 0.6861884601 0.6861884601  Biso 1.0 K
K16 1.0000000000 0.6861884601 0.3138115399 0.1861884601  Biso 1.0 K
Se17 1.0000000000 0.7759938625 0.3880320675 0.4985521881  Biso 1.0 Se
Se18 1.0000000000 0.7240061375 0.6119679325 0.9985521881  Biso 1.0 Se
Se19 1.0000000000 0.2240061375 0.8880320675 0.0014478119  Biso 1.0 Se
Se20 1.0000000000 0.2759938625 0.1119679325 0.5014478119  Biso 1.0 Se
Se21 1.0000000000 0.5014478119 0.7759938625 0.6119679325  Biso 1.0 Se
Se22 1.0000000000 0.0014478119 0.7240061375 0.3880320675  Biso 1.0 Se
Se23 1.0000000000 0.9985521881 0.2240061375 0.1119679325  Biso 1.0 Se
Se24 1.0000000000 0.4985521881 0.2759938625 0.8880320675  Biso 1.0 Se
Se25 1.0000000000 0.3880320675 0.5014478119 0.2240061375  Biso 1.0 Se
Se26 1.0000000000 0.6119679325 0.0014478119 0.2759938625  Biso 1.0 Se
Se27 1.0000000000 0.8880320675 0.9985521881 0.7759938625  Biso 1.0 Se
Se28 1.0000000000 0.1119679325 0.4985521881 0.7240061375  Biso 1.0 Se
