# AFLOW.org Repositories
# Bi1Li1Zn1   [HEX,HEX,hP6] (STD_PRIM doi:
data_Bi1Li1Zn1
_pd_phase_name Bi1Li1Zn1
_cell_length_a  4.5897023224
_cell_length_b  4.5897023224
_cell_length_c  7.4170290902
_cell_angle_alpha  90.0000000000
_cell_angle_beta  90.0000000000
_cell_angle_gamma  120.0000000000
_symmetry_space_group_name_H-M  'P1'
_symmetry_Int_Tables_Number  1
loop_
_symmetry_equiv_pos_site_id
_symmetry_equiv_pos_as_xyz
  1  x,y,z
loop_
 _atom_site_label
 _atom_site_occupancy
 _atom_site_fract_x
 _atom_site_fract_y
 _atom_site_fract_z
 _atom_site_thermal_displace_type
 _atom_site_B_iso_or_equiv
 _atom_site_type_symbol
Bi1 1.0000000000 0.6666646308 0.3333292615 0.3306625236  Biso 1.0 Bi
Bi2 1.0000000000 0.3333353692 0.6666707385 0.8306625236  Biso 1.0 Bi
Li3 1.0000000000 0.0000000000 0.0000000000 0.1033320534  Biso 1.0 Li
Li4 1.0000000000 0.0000000000 0.0000000000 0.6033320534  Biso 1.0 Li
Zn5 1.0000000000 0.6666696311 0.3333392622 0.9480054230  Biso 1.0 Zn
Zn6 1.0000000000 0.3333303689 0.6666607378 0.4480054230  Biso 1.0 Zn
