# AFLOW.org Repositories
# Bi1O3Rb3   [CUB,CUB,cP28] (STD_PRIM doi:
data_Bi1O3Rb3
_pd_phase_name Bi1O3Rb3
_cell_length_a  8.9699050708
_cell_length_b  8.9699050708
_cell_length_c  8.9699050708
_cell_angle_alpha  90.0000000000
_cell_angle_beta  90.0000000000
_cell_angle_gamma  90.0000000000
_symmetry_space_group_name_H-M  'P1'
_symmetry_Int_Tables_Number  1
loop_
_symmetry_equiv_pos_site_id
_symmetry_equiv_pos_as_xyz
  1  x,y,z
loop_
 _atom_site_label
 _atom_site_occupancy
 _atom_site_fract_x
 _atom_site_fract_y
 _atom_site_fract_z
 _atom_site_thermal_displace_type
 _atom_site_B_iso_or_equiv
 _atom_site_type_symbol
Bi1 1.0000000000 0.4863445277 0.4863445277 0.5136554723  Biso 1.0 Bi
Bi2 1.0000000000 0.0136554723 0.5136554723 0.0136554723  Biso 1.0 Bi
Bi3 1.0000000000 0.5136554723 0.9863445277 0.9863445277  Biso 1.0 Bi
Bi4 1.0000000000 0.9863445277 0.0136554723 0.4863445277  Biso 1.0 Bi
O5 1.0000000000 0.9400026097 0.0033345159 0.7143511788  Biso 1.0 O
O6 1.0000000000 0.5599973903 0.9966654841 0.2143511788  Biso 1.0 O
O7 1.0000000000 0.0599973903 0.5033345159 0.7856488212  Biso 1.0 O
O8 1.0000000000 0.4400026097 0.4966654841 0.2856488212  Biso 1.0 O
O9 1.0000000000 0.2856488212 0.9400026097 0.9966654841  Biso 1.0 O
O10 1.0000000000 0.7856488212 0.5599973903 0.0033345159  Biso 1.0 O
O11 1.0000000000 0.2143511788 0.0599973903 0.4966654841  Biso 1.0 O
O12 1.0000000000 0.7143511788 0.4400026097 0.5033345159  Biso 1.0 O
O13 1.0000000000 0.0033345159 0.2856488212 0.0599973903  Biso 1.0 O
O14 1.0000000000 0.9966654841 0.7856488212 0.4400026097  Biso 1.0 O
O15 1.0000000000 0.5033345159 0.2143511788 0.9400026097  Biso 1.0 O
O16 1.0000000000 0.4966654841 0.7143511788 0.5599973903  Biso 1.0 O
Rb17 1.0000000000 0.9797242087 0.9797242087 0.0202757913  Biso 1.0 Rb
Rb18 1.0000000000 0.5202757913 0.0202757913 0.5202757913  Biso 1.0 Rb
Rb19 1.0000000000 0.0202757913 0.4797242087 0.4797242087  Biso 1.0 Rb
Rb20 1.0000000000 0.4797242087 0.5202757913 0.9797242087  Biso 1.0 Rb
Rb21 1.0000000000 0.2104102334 0.2104102334 0.7895897666  Biso 1.0 Rb
Rb22 1.0000000000 0.2895897666 0.7895897666 0.2895897666  Biso 1.0 Rb
Rb23 1.0000000000 0.7895897666 0.7104102334 0.7104102334  Biso 1.0 Rb
Rb24 1.0000000000 0.7104102334 0.2895897666 0.2104102334  Biso 1.0 Rb
Rb25 1.0000000000 0.7162020918 0.7162020918 0.2837979082  Biso 1.0 Rb
Rb26 1.0000000000 0.7837979082 0.2837979082 0.7837979082  Biso 1.0 Rb
Rb27 1.0000000000 0.2837979082 0.2162020918 0.2162020918  Biso 1.0 Rb
Rb28 1.0000000000 0.2162020918 0.7837979082 0.7162020918  Biso 1.0 Rb
