# AFLOW.org Repositories
# Bi1Pt1Te1   [CUB,CUB,cP12] (STD_PRIM doi
data_Bi1Pt1Te1
_pd_phase_name Bi1Pt1Te1
_cell_length_a  6.7376657034
_cell_length_b  6.7376657034
_cell_length_c  6.7376657034
_cell_angle_alpha  90.0000000000
_cell_angle_beta  90.0000000000
_cell_angle_gamma  90.0000000000
_symmetry_space_group_name_H-M  'P1'
_symmetry_Int_Tables_Number  1
loop_
_symmetry_equiv_pos_site_id
_symmetry_equiv_pos_as_xyz
  1  x,y,z
loop_
 _atom_site_label
 _atom_site_occupancy
 _atom_site_fract_x
 _atom_site_fract_y
 _atom_site_fract_z
 _atom_site_thermal_displace_type
 _atom_site_B_iso_or_equiv
 _atom_site_type_symbol
Bi1 1.0000000000 0.6319702156 0.6319702156 0.3680297844  Biso 1.0 Bi
Bi2 1.0000000000 0.8680297844 0.3680297844 0.8680297844  Biso 1.0 Bi
Bi3 1.0000000000 0.3680297844 0.1319702156 0.1319702156  Biso 1.0 Bi
Bi4 1.0000000000 0.1319702156 0.8680297844 0.6319702156  Biso 1.0 Bi
Pt5 1.0000000000 0.9949050824 0.9949050824 0.0050949176  Biso 1.0 Pt
Pt6 1.0000000000 0.5050949176 0.0050949176 0.5050949176  Biso 1.0 Pt
Pt7 1.0000000000 0.0050949176 0.4949050824 0.4949050824  Biso 1.0 Pt
Pt8 1.0000000000 0.4949050824 0.5050949176 0.9949050824  Biso 1.0 Pt
Te9 1.0000000000 0.3729161371 0.3729161371 0.6270838629  Biso 1.0 Te
Te10 1.0000000000 0.1270838629 0.6270838629 0.1270838629  Biso 1.0 Te
Te11 1.0000000000 0.6270838629 0.8729161371 0.8729161371  Biso 1.0 Te
Te12 1.0000000000 0.8729161371 0.1270838629 0.3729161371  Biso 1.0 Te
