# AFLOW.org Repositories
# Bi1Rh1Se1   [CUB,CUB,cP12] (STD_PRIM doi
data_Bi1Rh1Se1
_pd_phase_name Bi1Rh1Se1
_cell_length_a  6.3770497177
_cell_length_b  6.3770497177
_cell_length_c  6.3770497177
_cell_angle_alpha  90.0000000000
_cell_angle_beta  90.0000000000
_cell_angle_gamma  90.0000000000
_symmetry_space_group_name_H-M  'P1'
_symmetry_Int_Tables_Number  1
loop_
_symmetry_equiv_pos_site_id
_symmetry_equiv_pos_as_xyz
  1  x,y,z
loop_
 _atom_site_label
 _atom_site_occupancy
 _atom_site_fract_x
 _atom_site_fract_y
 _atom_site_fract_z
 _atom_site_thermal_displace_type
 _atom_site_B_iso_or_equiv
 _atom_site_type_symbol
Bi1 1.0000000000 0.6302786225 0.6302786225 0.3697213775  Biso 1.0 Bi
Bi2 1.0000000000 0.8697213775 0.3697213775 0.8697213775  Biso 1.0 Bi
Bi3 1.0000000000 0.3697213775 0.1302786225 0.1302786225  Biso 1.0 Bi
Bi4 1.0000000000 0.1302786225 0.8697213775 0.6302786225  Biso 1.0 Bi
Rh5 1.0000000000 0.9854767000 0.9854767000 0.0145233000  Biso 1.0 Rh
Rh6 1.0000000000 0.5145233000 0.0145233000 0.5145233000  Biso 1.0 Rh
Rh7 1.0000000000 0.0145233000 0.4854767000 0.4854767000  Biso 1.0 Rh
Rh8 1.0000000000 0.4854767000 0.5145233000 0.9854767000  Biso 1.0 Rh
Se9 1.0000000000 0.3792569253 0.3792569253 0.6207430747  Biso 1.0 Se
Se10 1.0000000000 0.1207430747 0.6207430747 0.1207430747  Biso 1.0 Se
Se11 1.0000000000 0.6207430747 0.8792569253 0.8792569253  Biso 1.0 Se
Se12 1.0000000000 0.8792569253 0.1207430747 0.3792569253  Biso 1.0 Se
