# AFLOW.org Repositories
# Bi1Rh1S1   [CUB,CUB,cP12] (STD_PRIM doi:
data_Bi1Rh1S1
_pd_phase_name Bi1Rh1S1
_cell_length_a  6.2198896248
_cell_length_b  6.2198896248
_cell_length_c  6.2198896248
_cell_angle_alpha  90.0000000000
_cell_angle_beta  90.0000000000
_cell_angle_gamma  90.0000000000
_symmetry_space_group_name_H-M  'P1'
_symmetry_Int_Tables_Number  1
loop_
_symmetry_equiv_pos_site_id
_symmetry_equiv_pos_as_xyz
  1  x,y,z
loop_
 _atom_site_label
 _atom_site_occupancy
 _atom_site_fract_x
 _atom_site_fract_y
 _atom_site_fract_z
 _atom_site_thermal_displace_type
 _atom_site_B_iso_or_equiv
 _atom_site_type_symbol
Bi1 1.0000000000 0.6271985540 0.6271985540 0.3728014460  Biso 1.0 Bi
Bi2 1.0000000000 0.8728014460 0.3728014460 0.8728014460  Biso 1.0 Bi
Bi3 1.0000000000 0.3728014460 0.1271985540 0.1271985540  Biso 1.0 Bi
Bi4 1.0000000000 0.1271985540 0.8728014460 0.6271985540  Biso 1.0 Bi
Rh5 1.0000000000 0.9784082264 0.9784082264 0.0215917736  Biso 1.0 Rh
Rh6 1.0000000000 0.5215917736 0.0215917736 0.5215917736  Biso 1.0 Rh
Rh7 1.0000000000 0.0215917736 0.4784082264 0.4784082264  Biso 1.0 Rh
Rh8 1.0000000000 0.4784082264 0.5215917736 0.9784082264  Biso 1.0 Rh
S9 1.0000000000 0.3815488691 0.3815488691 0.6184511309  Biso 1.0 S
S10 1.0000000000 0.1184511309 0.6184511309 0.1184511309  Biso 1.0 S
S11 1.0000000000 0.6184511309 0.8815488691 0.8815488691  Biso 1.0 S
S12 1.0000000000 0.8815488691 0.1184511309 0.3815488691  Biso 1.0 S
