# AFLOW.org Repositories
# Bi1Rb3   [HEX,HEX,hP8] (STD_PRIM doi:10.
data_Bi1Rb3
_pd_phase_name Bi1Rb3
_cell_length_a  6.4993910942
_cell_length_b  6.4993910942
_cell_length_c  11.5296596075
_cell_angle_alpha  90.0000000000
_cell_angle_beta  90.0000000000
_cell_angle_gamma  120.0000000000
_symmetry_space_group_name_H-M  'P1'
_symmetry_Int_Tables_Number  1
loop_
_symmetry_equiv_pos_site_id
_symmetry_equiv_pos_as_xyz
  1  x,y,z
loop_
 _atom_site_label
 _atom_site_occupancy
 _atom_site_fract_x
 _atom_site_fract_y
 _atom_site_fract_z
 _atom_site_thermal_displace_type
 _atom_site_B_iso_or_equiv
 _atom_site_type_symbol
Bi1 1.0000000000 0.3332557267 0.6666278633 0.2500000000  Biso 1.0 Bi
Bi2 1.0000000000 0.6667442733 0.3333721367 0.7500000000  Biso 1.0 Bi
Rb3 1.0000000000 0.0000000000 0.0000000000 0.2500000000  Biso 1.0 Rb
Rb4 1.0000000000 0.0000000000 0.0000000000 0.7500000000  Biso 1.0 Rb
Rb5 1.0000000000 0.3333701608 0.6666850804 0.5813571622  Biso 1.0 Rb
Rb6 1.0000000000 0.6666298392 0.3333149196 0.0813571622  Biso 1.0 Rb
Rb7 1.0000000000 0.6666298392 0.3333149196 0.4186428378  Biso 1.0 Rb
Rb8 1.0000000000 0.3333701608 0.6666850804 0.9186428378  Biso 1.0 Rb
