# AFLOW.org Repositories
# Bi2Er6Mn1   [HEX,HEX,hP9] (STD_PRIM doi:
data_Bi2Er6Mn1
_pd_phase_name Bi2Er6Mn1
_cell_length_a  8.2584267954
_cell_length_b  8.2584267954
_cell_length_c  4.1682008856
_cell_angle_alpha  90.0000000000
_cell_angle_beta  90.0000000000
_cell_angle_gamma  120.0000000000
_symmetry_space_group_name_H-M  'P1'
_symmetry_Int_Tables_Number  1
loop_
_symmetry_equiv_pos_site_id
_symmetry_equiv_pos_as_xyz
  1  x,y,z
loop_
 _atom_site_label
 _atom_site_occupancy
 _atom_site_fract_x
 _atom_site_fract_y
 _atom_site_fract_z
 _atom_site_thermal_displace_type
 _atom_site_B_iso_or_equiv
 _atom_site_type_symbol
Bi1 1.0000000000 0.6666832361 0.3333658065 0.0000000000  Biso 1.0 Bi
Bi2 1.0000000000 0.3333174295 0.6666341935 0.0000000000  Biso 1.0 Bi
Er3 1.0000000000 0.0000000000 0.3921280199 0.5000000000  Biso 1.0 Er
Er4 1.0000000000 0.6078719801 0.6078719801 0.5000000000  Biso 1.0 Er
Er5 1.0000000000 0.3921349108 0.0000000000 0.5000000000  Biso 1.0 Er
Er6 1.0000000000 0.0000000000 0.7707055633 0.0000000000  Biso 1.0 Er
Er7 1.0000000000 0.2292944367 0.2292944367 0.0000000000  Biso 1.0 Er
Er8 1.0000000000 0.7706815891 0.0000000000 0.0000000000  Biso 1.0 Er
Mn9 1.0000000000 0.0000000000 0.0000000000 0.5000000000  Biso 1.0 Mn
