# AFLOW.org Repositories
# Bi2Mg1O6   [TET,TET,tP18] (STD_PRIM doi:
data_Bi2Mg1O6
_pd_phase_name Bi2Mg1O6
_cell_length_a  4.9195688307
_cell_length_b  4.9195688307
_cell_length_c  9.9018963977
_cell_angle_alpha  90.0000000000
_cell_angle_beta  90.0000000000
_cell_angle_gamma  90.0000000000
_symmetry_space_group_name_H-M  'P1'
_symmetry_Int_Tables_Number  1
loop_
_symmetry_equiv_pos_site_id
_symmetry_equiv_pos_as_xyz
  1  x,y,z
loop_
 _atom_site_label
 _atom_site_occupancy
 _atom_site_fract_x
 _atom_site_fract_y
 _atom_site_fract_z
 _atom_site_thermal_displace_type
 _atom_site_B_iso_or_equiv
 _atom_site_type_symbol
Bi1 1.0000000000 0.0000000000 0.0000000000 0.3328233882  Biso 1.0 Bi
Bi2 1.0000000000 0.5000000000 0.5000000000 0.8328233882  Biso 1.0 Bi
Bi3 1.0000000000 0.5000000000 0.5000000000 0.1671766118  Biso 1.0 Bi
Bi4 1.0000000000 0.0000000000 0.0000000000 0.6671766118  Biso 1.0 Bi
Mg5 1.0000000000 0.0000000000 0.0000000000 0.0000000000  Biso 1.0 Mg
Mg6 1.0000000000 0.5000000000 0.5000000000 0.5000000000  Biso 1.0 Mg
O7 1.0000000000 0.3033187401 0.3033187401 0.0000000000  Biso 1.0 O
O8 1.0000000000 0.6966812599 0.6966812599 0.0000000000  Biso 1.0 O
O9 1.0000000000 0.1966812599 0.8033187401 0.5000000000  Biso 1.0 O
O10 1.0000000000 0.8033187401 0.1966812599 0.5000000000  Biso 1.0 O
O11 1.0000000000 0.3084862231 0.3084862231 0.3351905065  Biso 1.0 O
O12 1.0000000000 0.6915137769 0.6915137769 0.3351905065  Biso 1.0 O
O13 1.0000000000 0.1915137769 0.8084862231 0.8351905065  Biso 1.0 O
O14 1.0000000000 0.8084862231 0.1915137769 0.8351905065  Biso 1.0 O
O15 1.0000000000 0.1915137769 0.8084862231 0.1648094935  Biso 1.0 O
O16 1.0000000000 0.8084862231 0.1915137769 0.1648094935  Biso 1.0 O
O17 1.0000000000 0.3084862231 0.3084862231 0.6648094935  Biso 1.0 O
O18 1.0000000000 0.6915137769 0.6915137769 0.6648094935  Biso 1.0 O
