# AFLOW.org Repositories
# Bi2O7Rh2   [FCC,FCC,cF88] (STD_PRIM doi:
data_Bi2O7Rh2
_pd_phase_name Bi2O7Rh2
_cell_length_a  7.3462010275
_cell_length_b  7.3462010275
_cell_length_c  7.3462010275
_cell_angle_alpha  60.0000000000
_cell_angle_beta  60.0000000000
_cell_angle_gamma  60.0000000000
_symmetry_space_group_name_H-M  'P1'
_symmetry_Int_Tables_Number  1
loop_
_symmetry_equiv_pos_site_id
_symmetry_equiv_pos_as_xyz
  1  x,y,z
loop_
 _atom_site_label
 _atom_site_occupancy
 _atom_site_fract_x
 _atom_site_fract_y
 _atom_site_fract_z
 _atom_site_thermal_displace_type
 _atom_site_B_iso_or_equiv
 _atom_site_type_symbol
Bi1 1.0000000000 0.5000000000 0.5000000000 0.5000000000  Biso 1.0 Bi
Bi2 1.0000000000 0.0000000000 0.0000000000 0.5000000000  Biso 1.0 Bi
Bi3 1.0000000000 0.5000000000 0.0000000000 0.5000000000  Biso 1.0 Bi
Bi4 1.0000000000 0.5000000000 0.0000000000 0.0000000000  Biso 1.0 Bi
O5 1.0000000000 0.3335317439 0.4164682561 0.9164682561  Biso 1.0 O
O6 1.0000000000 0.9164682561 0.8335317439 0.3335317439  Biso 1.0 O
O7 1.0000000000 0.3335317439 0.4164682561 0.3335317439  Biso 1.0 O
O8 1.0000000000 0.9164682561 0.8335317439 0.9164682561  Biso 1.0 O
O9 1.0000000000 0.9164682561 0.4164682561 0.3335317439  Biso 1.0 O
O10 1.0000000000 0.3335317439 0.8335317439 0.9164682561  Biso 1.0 O
O11 1.0000000000 0.0835317439 0.1664682561 0.0835317439  Biso 1.0 O
O12 1.0000000000 0.6664682561 0.5835317439 0.6664682561  Biso 1.0 O
O13 1.0000000000 0.0835317439 0.1664682561 0.6664682561  Biso 1.0 O
O14 1.0000000000 0.6664682561 0.5835317439 0.0835317439  Biso 1.0 O
O15 1.0000000000 0.0835317439 0.5835317439 0.6664682561  Biso 1.0 O
O16 1.0000000000 0.6664682561 0.1664682561 0.0835317439  Biso 1.0 O
O17 1.0000000000 0.3750000000 0.8750000000 0.3750000000  Biso 1.0 O
O18 1.0000000000 0.6250000000 0.1250000000 0.6250000000  Biso 1.0 O
Rh19 1.0000000000 0.0000000000 0.0000000000 0.0000000000  Biso 1.0 Rh
Rh20 1.0000000000 0.5000000000 0.5000000000 0.0000000000  Biso 1.0 Rh
Rh21 1.0000000000 0.0000000000 0.5000000000 0.0000000000  Biso 1.0 Rh
Rh22 1.0000000000 0.0000000000 0.5000000000 0.5000000000  Biso 1.0 Rh
