# AFLOW.org Repositories
# Bi2Pd3S2   [BCC,BCC,cI28] (STD_PRIM doi:
data_Bi2Pd3S2
_pd_phase_name Bi2Pd3S2
_cell_length_a  7.2829778829
_cell_length_b  7.2829778829
_cell_length_c  7.2829778829
_cell_angle_alpha  109.4712206345
_cell_angle_beta  109.4712206345
_cell_angle_gamma  109.4712206345
_symmetry_space_group_name_H-M  'P1'
_symmetry_Int_Tables_Number  1
loop_
_symmetry_equiv_pos_site_id
_symmetry_equiv_pos_as_xyz
  1  x,y,z
loop_
 _atom_site_label
 _atom_site_occupancy
 _atom_site_fract_x
 _atom_site_fract_y
 _atom_site_fract_z
 _atom_site_thermal_displace_type
 _atom_site_B_iso_or_equiv
 _atom_site_type_symbol
Bi1 1.0000000000 0.0000000000 0.0000000000 0.0108832078  Biso 1.0 Bi
Bi2 1.0000000000 0.5000000000 0.0108832078 0.5000000000  Biso 1.0 Bi
Bi3 1.0000000000 0.5108832078 0.5000000000 0.0000000000  Biso 1.0 Bi
Bi4 1.0000000000 0.9891167922 0.4891167922 0.4891167922  Biso 1.0 Bi
Pd5 1.0000000000 0.7218399065 0.9718399065 0.2500000000  Biso 1.0 Pd
Pd6 1.0000000000 0.7781600935 0.5281600935 0.7500000000  Biso 1.0 Pd
Pd7 1.0000000000 0.0281600935 0.7500000000 0.2781600935  Biso 1.0 Pd
Pd8 1.0000000000 0.4718399065 0.2500000000 0.2218399065  Biso 1.0 Pd
Pd9 1.0000000000 0.2500000000 0.2781600935 0.5281600935  Biso 1.0 Pd
Pd10 1.0000000000 0.7500000000 0.2218399065 0.9718399065  Biso 1.0 Pd
S11 1.0000000000 0.0000000000 0.0000000000 0.5564397899  Biso 1.0 S
S12 1.0000000000 0.5000000000 0.5564397899 0.5000000000  Biso 1.0 S
S13 1.0000000000 0.0564397899 0.5000000000 0.0000000000  Biso 1.0 S
S14 1.0000000000 0.4435602101 0.9435602101 0.9435602101  Biso 1.0 S
