# AFLOW.org Repositories
# Bi4La3Pt3   [BCC,BCC,cI40] (STD_PRIM doi
data_Bi4La3Pt3
_pd_phase_name Bi4La3Pt3
_cell_length_a  8.8899505888
_cell_length_b  8.8899505888
_cell_length_c  8.8899505888
_cell_angle_alpha  109.4712206345
_cell_angle_beta  109.4712206345
_cell_angle_gamma  109.4712206345
_symmetry_space_group_name_H-M  'P1'
_symmetry_Int_Tables_Number  1
loop_
_symmetry_equiv_pos_site_id
_symmetry_equiv_pos_as_xyz
  1  x,y,z
loop_
 _atom_site_label
 _atom_site_occupancy
 _atom_site_fract_x
 _atom_site_fract_y
 _atom_site_fract_z
 _atom_site_thermal_displace_type
 _atom_site_B_iso_or_equiv
 _atom_site_type_symbol
Bi1 1.0000000000 0.1684378925 0.1684378925 0.1684378925  Biso 1.0 Bi
Bi2 1.0000000000 0.5000000000 0.0000000000 0.3315621075  Biso 1.0 Bi
Bi3 1.0000000000 0.0000000000 0.3315621075 0.5000000000  Biso 1.0 Bi
Bi4 1.0000000000 0.3315621075 0.5000000000 0.0000000000  Biso 1.0 Bi
Bi5 1.0000000000 0.6684378925 0.6684378925 0.6684378925  Biso 1.0 Bi
Bi6 1.0000000000 0.5000000000 0.0000000000 0.8315621075  Biso 1.0 Bi
Bi7 1.0000000000 0.8315621075 0.5000000000 0.0000000000  Biso 1.0 Bi
Bi8 1.0000000000 0.0000000000 0.8315621075 0.5000000000  Biso 1.0 Bi
La9 1.0000000000 0.2500000000 0.6250000000 0.3750000000  Biso 1.0 La
La10 1.0000000000 0.7500000000 0.8750000000 0.1250000000  Biso 1.0 La
La11 1.0000000000 0.3750000000 0.2500000000 0.6250000000  Biso 1.0 La
La12 1.0000000000 0.1250000000 0.7500000000 0.8750000000  Biso 1.0 La
La13 1.0000000000 0.6250000000 0.3750000000 0.2500000000  Biso 1.0 La
La14 1.0000000000 0.8750000000 0.1250000000 0.7500000000  Biso 1.0 La
Pt15 1.0000000000 0.2500000000 0.1250000000 0.8750000000  Biso 1.0 Pt
Pt16 1.0000000000 0.7500000000 0.3750000000 0.6250000000  Biso 1.0 Pt
Pt17 1.0000000000 0.8750000000 0.2500000000 0.1250000000  Biso 1.0 Pt
Pt18 1.0000000000 0.6250000000 0.7500000000 0.3750000000  Biso 1.0 Pt
Pt19 1.0000000000 0.1250000000 0.8750000000 0.2500000000  Biso 1.0 Pt
Pt20 1.0000000000 0.3750000000 0.6250000000 0.7500000000  Biso 1.0 Pt
