# AFLOW.org Repositories
# Br1   [ORCC,ORCC,oS8] (STD_PRIM doi:10.1
data_Br1
_pd_phase_name Br1
_cell_length_a  4.7666184663
_cell_length_b  4.7666184663
_cell_length_c  8.7128636887
_cell_angle_alpha  90.0000000000
_cell_angle_beta  90.0000000000
_cell_angle_gamma  126.9214440932
_symmetry_space_group_name_H-M  'P1'
_symmetry_Int_Tables_Number  1
loop_
_symmetry_equiv_pos_site_id
_symmetry_equiv_pos_as_xyz
  1  x,y,z
loop_
 _atom_site_label
 _atom_site_occupancy
 _atom_site_fract_x
 _atom_site_fract_y
 _atom_site_fract_z
 _atom_site_thermal_displace_type
 _atom_site_B_iso_or_equiv
 _atom_site_type_symbol
Br1 1.0000000000 0.6418077817 0.6418077817 0.8815057633  Biso 1.0 Br
Br2 1.0000000000 0.8581922183 0.8581922183 0.3815057633  Biso 1.0 Br
Br3 1.0000000000 0.1418077817 0.1418077817 0.6184942367  Biso 1.0 Br
Br4 1.0000000000 0.3581922183 0.3581922183 0.1184942367  Biso 1.0 Br
