# AFLOW.org Repositories
# Br1Eu1I1   [ORC,ORC,oP12] (STD_PRIM doi:
data_Br1Eu1I1
_pd_phase_name Br1Eu1I1
_cell_length_a  4.8320144630
_cell_length_b  8.4951204338
_cell_length_c  9.8000151082
_cell_angle_alpha  90.0000000000
_cell_angle_beta  90.0000000000
_cell_angle_gamma  90.0000000000
_symmetry_space_group_name_H-M  'P1'
_symmetry_Int_Tables_Number  1
loop_
_symmetry_equiv_pos_site_id
_symmetry_equiv_pos_as_xyz
  1  x,y,z
loop_
 _atom_site_label
 _atom_site_occupancy
 _atom_site_fract_x
 _atom_site_fract_y
 _atom_site_fract_z
 _atom_site_thermal_displace_type
 _atom_site_B_iso_or_equiv
 _atom_site_type_symbol
Br1 1.0000000000 0.2500000000 0.6446692441 0.4353233302  Biso 1.0 Br
Br2 1.0000000000 0.7500000000 0.8553307559 0.9353233302  Biso 1.0 Br
Br3 1.0000000000 0.7500000000 0.3553307559 0.5646766698  Biso 1.0 Br
Br4 1.0000000000 0.2500000000 0.1446692441 0.0646766698  Biso 1.0 Br
Eu5 1.0000000000 0.7500000000 0.7260644338 0.6276699660  Biso 1.0 Eu
Eu6 1.0000000000 0.2500000000 0.7739355662 0.1276699660  Biso 1.0 Eu
Eu7 1.0000000000 0.2500000000 0.2739355662 0.3723300340  Biso 1.0 Eu
Eu8 1.0000000000 0.7500000000 0.2260644338 0.8723300340  Biso 1.0 Eu
I9 1.0000000000 0.2500000000 0.0266143590 0.6669567529  Biso 1.0 I
I10 1.0000000000 0.7500000000 0.4733856410 0.1669567529  Biso 1.0 I
I11 1.0000000000 0.7500000000 0.9733856410 0.3330432471  Biso 1.0 I
I12 1.0000000000 0.2500000000 0.5266143590 0.8330432471  Biso 1.0 I
