# AFLOW.org Repositories
# Br1In1   [ORCC,ORCC,oS8] (STD_PRIM doi:1
data_Br1In1
_pd_phase_name Br1In1
_cell_length_a  6.6451703348
_cell_length_b  6.6451703348
_cell_length_c  4.6482394410
_cell_angle_alpha  90.0000000000
_cell_angle_beta  90.0000000000
_cell_angle_gamma  139.4354685096
_symmetry_space_group_name_H-M  'P1'
_symmetry_Int_Tables_Number  1
loop_
_symmetry_equiv_pos_site_id
_symmetry_equiv_pos_as_xyz
  1  x,y,z
loop_
 _atom_site_label
 _atom_site_occupancy
 _atom_site_fract_x
 _atom_site_fract_y
 _atom_site_fract_z
 _atom_site_thermal_displace_type
 _atom_site_B_iso_or_equiv
 _atom_site_type_symbol
Br1 1.0000000000 0.1475882770 0.8524117230 0.7500000000  Biso 1.0 Br
Br2 1.0000000000 0.8524117230 0.1475882770 0.2500000000  Biso 1.0 Br
In3 1.0000000000 0.3911142271 0.6088857729 0.7500000000  Biso 1.0 In
In4 1.0000000000 0.6088857729 0.3911142271 0.2500000000  Biso 1.0 In
