# AFLOW.org Repositories
# Br1Mo1S1   [FCC,FCC,cF48] (STD_PRIM doi:
data_Br1Mo1S1
_pd_phase_name Br1Mo1S1
_cell_length_a  7.1541162223
_cell_length_b  7.1541162223
_cell_length_c  7.1541162223
_cell_angle_alpha  60.0000000000
_cell_angle_beta  60.0000000000
_cell_angle_gamma  60.0000000000
_symmetry_space_group_name_H-M  'P1'
_symmetry_Int_Tables_Number  1
loop_
_symmetry_equiv_pos_site_id
_symmetry_equiv_pos_as_xyz
  1  x,y,z
loop_
 _atom_site_label
 _atom_site_occupancy
 _atom_site_fract_x
 _atom_site_fract_y
 _atom_site_fract_z
 _atom_site_thermal_displace_type
 _atom_site_B_iso_or_equiv
 _atom_site_type_symbol
Br1 1.0000000000 0.1286872009 0.6139383974 0.1286872009  Biso 1.0 Br
Br2 1.0000000000 0.1286872009 0.1286872009 0.1286872009  Biso 1.0 Br
Br3 1.0000000000 0.1286872009 0.1286872009 0.6139383974  Biso 1.0 Br
Br4 1.0000000000 0.6139383974 0.1286872009 0.1286872009  Biso 1.0 Br
Mo5 1.0000000000 0.4020069146 0.7939792563 0.4020069146  Biso 1.0 Mo
Mo6 1.0000000000 0.4020069146 0.4020069146 0.4020069146  Biso 1.0 Mo
Mo7 1.0000000000 0.4020069146 0.4020069146 0.7939792563  Biso 1.0 Mo
Mo8 1.0000000000 0.7939792563 0.4020069146 0.4020069146  Biso 1.0 Mo
S9 1.0000000000 0.6312175370 0.1063473890 0.6312175370  Biso 1.0 S
S10 1.0000000000 0.6312175370 0.6312175370 0.6312175370  Biso 1.0 S
S11 1.0000000000 0.6312175370 0.6312175370 0.1063473890  Biso 1.0 S
S12 1.0000000000 0.1063473890 0.6312175370 0.6312175370  Biso 1.0 S
