# AFLOW.org Repositories
# Br1Na1O3   [CUB,CUB,cP20] (STD_PRIM doi:
data_Br1Na1O3
_pd_phase_name Br1Na1O3
_cell_length_a  6.8071892532
_cell_length_b  6.8071892532
_cell_length_c  6.8071892532
_cell_angle_alpha  90.0000000000
_cell_angle_beta  90.0000000000
_cell_angle_gamma  90.0000000000
_symmetry_space_group_name_H-M  'P1'
_symmetry_Int_Tables_Number  1
loop_
_symmetry_equiv_pos_site_id
_symmetry_equiv_pos_as_xyz
  1  x,y,z
loop_
 _atom_site_label
 _atom_site_occupancy
 _atom_site_fract_x
 _atom_site_fract_y
 _atom_site_fract_z
 _atom_site_thermal_displace_type
 _atom_site_B_iso_or_equiv
 _atom_site_type_symbol
Br1 1.0000000000 0.5959549119 0.5959549119 0.4040450881  Biso 1.0 Br
Br2 1.0000000000 0.9040450881 0.4040450881 0.9040450881  Biso 1.0 Br
Br3 1.0000000000 0.4040450881 0.0959549119 0.0959549119  Biso 1.0 Br
Br4 1.0000000000 0.0959549119 0.9040450881 0.5959549119  Biso 1.0 Br
Na5 1.0000000000 0.9214559046 0.9214559046 0.0785440954  Biso 1.0 Na
Na6 1.0000000000 0.5785440954 0.0785440954 0.5785440954  Biso 1.0 Na
Na7 1.0000000000 0.0785440954 0.4214559046 0.4214559046  Biso 1.0 Na
Na8 1.0000000000 0.4214559046 0.5785440954 0.9214559046  Biso 1.0 Na
O9 1.0000000000 0.7149846193 0.4009550083 0.5013446412  Biso 1.0 O
O10 1.0000000000 0.7850153807 0.5990449917 0.0013446412  Biso 1.0 O
O11 1.0000000000 0.2850153807 0.9009550083 0.9986553588  Biso 1.0 O
O12 1.0000000000 0.2149846193 0.0990449917 0.4986553588  Biso 1.0 O
O13 1.0000000000 0.4986553588 0.7149846193 0.5990449917  Biso 1.0 O
O14 1.0000000000 0.9986553588 0.7850153807 0.4009550083  Biso 1.0 O
O15 1.0000000000 0.0013446412 0.2850153807 0.0990449917  Biso 1.0 O
O16 1.0000000000 0.5013446412 0.2149846193 0.9009550083  Biso 1.0 O
O17 1.0000000000 0.4009550083 0.4986553588 0.2850153807  Biso 1.0 O
O18 1.0000000000 0.5990449917 0.9986553588 0.2149846193  Biso 1.0 O
O19 1.0000000000 0.9009550083 0.0013446412 0.7149846193  Biso 1.0 O
O20 1.0000000000 0.0990449917 0.5013446412 0.7850153807  Biso 1.0 O
