# AFLOW.org Repositories
# Br1Tl1   [ORCC,ORCC,oS8] (STD_PRIM doi:1
data_Br1Tl1
_pd_phase_name Br1Tl1
_cell_length_a  6.6932671998
_cell_length_b  6.6932671998
_cell_length_c  5.0491767161
_cell_angle_alpha  90.0000000000
_cell_angle_beta  90.0000000000
_cell_angle_gamma  141.0769753498
_symmetry_space_group_name_H-M  'P1'
_symmetry_Int_Tables_Number  1
loop_
_symmetry_equiv_pos_site_id
_symmetry_equiv_pos_as_xyz
  1  x,y,z
loop_
 _atom_site_label
 _atom_site_occupancy
 _atom_site_fract_x
 _atom_site_fract_y
 _atom_site_fract_z
 _atom_site_thermal_displace_type
 _atom_site_B_iso_or_equiv
 _atom_site_type_symbol
Br1 1.0000000000 0.8673883782 0.1326116218 0.7500000000  Biso 1.0 Br
Br2 1.0000000000 0.1326116218 0.8673883782 0.2500000000  Biso 1.0 Br
Tl3 1.0000000000 0.6144903389 0.3855096611 0.7500000000  Biso 1.0 Tl
Tl4 1.0000000000 0.3855096611 0.6144903389 0.2500000000  Biso 1.0 Tl
