# AFLOW.org Repositories
# Br2Ca1   [TET,TET,tP6] (STD_PRIM doi:10.
data_Br2Ca1
_pd_phase_name Br2Ca1
_cell_length_a  6.8511231517
_cell_length_b  6.8511231517
_cell_length_c  4.4074478829
_cell_angle_alpha  90.0000000000
_cell_angle_beta  90.0000000000
_cell_angle_gamma  90.0000000000
_symmetry_space_group_name_H-M  'P1'
_symmetry_Int_Tables_Number  1
loop_
_symmetry_equiv_pos_site_id
_symmetry_equiv_pos_as_xyz
  1  x,y,z
loop_
 _atom_site_label
 _atom_site_occupancy
 _atom_site_fract_x
 _atom_site_fract_y
 _atom_site_fract_z
 _atom_site_thermal_displace_type
 _atom_site_B_iso_or_equiv
 _atom_site_type_symbol
Br1 1.0000000000 0.3034621214 0.3034621214 0.0000000000  Biso 1.0 Br
Br2 1.0000000000 0.6965378786 0.6965378786 0.0000000000  Biso 1.0 Br
Br3 1.0000000000 0.1965378786 0.8034621214 0.5000000000  Biso 1.0 Br
Br4 1.0000000000 0.8034621214 0.1965378786 0.5000000000  Biso 1.0 Br
Ca5 1.0000000000 0.0000000000 0.0000000000 0.0000000000  Biso 1.0 Ca
Ca6 1.0000000000 0.5000000000 0.5000000000 0.5000000000  Biso 1.0 Ca
