# AFLOW.org Repositories
# Br3Ca1In1   [ORCC,ORCC,oS20] (STD_PRIM d
data_Br3Ca1In1
_pd_phase_name Br3Ca1In1
_cell_length_a  7.5064474032
_cell_length_b  7.5064474032
_cell_length_c  10.9440499033
_cell_angle_alpha  90.0000000000
_cell_angle_beta  90.0000000000
_cell_angle_gamma  146.6785810943
_symmetry_space_group_name_H-M  'P1'
_symmetry_Int_Tables_Number  1
loop_
_symmetry_equiv_pos_site_id
_symmetry_equiv_pos_as_xyz
  1  x,y,z
loop_
 _atom_site_label
 _atom_site_occupancy
 _atom_site_fract_x
 _atom_site_fract_y
 _atom_site_fract_z
 _atom_site_thermal_displace_type
 _atom_site_B_iso_or_equiv
 _atom_site_type_symbol
Br1 1.0000000000 0.1333730770 0.8666269230 0.4531702516  Biso 1.0 Br
Br2 1.0000000000 0.8666269230 0.1333730770 0.9531702516  Biso 1.0 Br
Br3 1.0000000000 0.1333730770 0.8666269230 0.0468297484  Biso 1.0 Br
Br4 1.0000000000 0.8666269230 0.1333730770 0.5468297484  Biso 1.0 Br
Br5 1.0000000000 0.5704268920 0.4295731080 0.7500000000  Biso 1.0 Br
Br6 1.0000000000 0.4295731080 0.5704268920 0.2500000000  Biso 1.0 Br
Ca7 1.0000000000 0.5000000000 0.5000000000 0.0000000000  Biso 1.0 Ca
Ca8 1.0000000000 0.5000000000 0.5000000000 0.5000000000  Biso 1.0 Ca
In9 1.0000000000 0.2361376172 0.7638623828 0.7500000000  Biso 1.0 In
In10 1.0000000000 0.7638623828 0.2361376172 0.2500000000  Biso 1.0 In
