# AFLOW.org Repositories
# Br6K2Pt1   [FCC,FCC,cF36] (STD_PRIM doi:
data_Br6K2Pt1
_pd_phase_name Br6K2Pt1
_cell_length_a  7.4526545003
_cell_length_b  7.4526545003
_cell_length_c  7.4526545003
_cell_angle_alpha  60.0000000000
_cell_angle_beta  60.0000000000
_cell_angle_gamma  60.0000000000
_symmetry_space_group_name_H-M  'P1'
_symmetry_Int_Tables_Number  1
loop_
_symmetry_equiv_pos_site_id
_symmetry_equiv_pos_as_xyz
  1  x,y,z
loop_
 _atom_site_label
 _atom_site_occupancy
 _atom_site_fract_x
 _atom_site_fract_y
 _atom_site_fract_z
 _atom_site_thermal_displace_type
 _atom_site_B_iso_or_equiv
 _atom_site_type_symbol
Br1 1.0000000000 0.2372843954 0.7627156046 0.2372843954  Biso 1.0 Br
Br2 1.0000000000 0.7627156046 0.2372843954 0.7627156046  Biso 1.0 Br
Br3 1.0000000000 0.7627156046 0.7627156046 0.2372843954  Biso 1.0 Br
Br4 1.0000000000 0.2372843954 0.2372843954 0.7627156046  Biso 1.0 Br
Br5 1.0000000000 0.2372843954 0.7627156046 0.7627156046  Biso 1.0 Br
Br6 1.0000000000 0.7627156046 0.2372843954 0.2372843954  Biso 1.0 Br
K7 1.0000000000 0.2500000000 0.2500000000 0.2500000000  Biso 1.0 K
K8 1.0000000000 0.7500000000 0.7500000000 0.7500000000  Biso 1.0 K
Pt9 1.0000000000 0.0000000000 0.0000000000 0.0000000000  Biso 1.0 Pt
