# AFLOW.org Repositories
# Br6K2Te1   [TET,TET,tP18] (STD_PRIM doi:
data_Br6K2Te1
_pd_phase_name Br6K2Te1
_cell_length_a  7.6080690671
_cell_length_b  7.6080690671
_cell_length_c  11.2935298017
_cell_angle_alpha  90.0000000000
_cell_angle_beta  90.0000000000
_cell_angle_gamma  90.0000000000
_symmetry_space_group_name_H-M  'P1'
_symmetry_Int_Tables_Number  1
loop_
_symmetry_equiv_pos_site_id
_symmetry_equiv_pos_as_xyz
  1  x,y,z
loop_
 _atom_site_label
 _atom_site_occupancy
 _atom_site_fract_x
 _atom_site_fract_y
 _atom_site_fract_z
 _atom_site_thermal_displace_type
 _atom_site_B_iso_or_equiv
 _atom_site_type_symbol
Br1 1.0000000000 0.0000000000 0.0000000000 0.2425307453  Biso 1.0 Br
Br2 1.0000000000 0.5000000000 0.5000000000 0.2574692547  Biso 1.0 Br
Br3 1.0000000000 0.0000000000 0.0000000000 0.7574692547  Biso 1.0 Br
Br4 1.0000000000 0.5000000000 0.5000000000 0.7425307453  Biso 1.0 Br
Br5 1.0000000000 0.1903622515 0.3053123058 0.0000000000  Biso 1.0 Br
Br6 1.0000000000 0.8096377485 0.6946876942 0.0000000000  Biso 1.0 Br
Br7 1.0000000000 0.6946876942 0.1903622515 0.0000000000  Biso 1.0 Br
Br8 1.0000000000 0.3053123058 0.8096377485 0.0000000000  Biso 1.0 Br
Br9 1.0000000000 0.3096377485 0.8053123058 0.5000000000  Biso 1.0 Br
Br10 1.0000000000 0.6903622515 0.1946876942 0.5000000000  Biso 1.0 Br
Br11 1.0000000000 0.8053123058 0.6903622515 0.5000000000  Biso 1.0 Br
Br12 1.0000000000 0.1946876942 0.3096377485 0.5000000000  Biso 1.0 Br
K13 1.0000000000 0.0000000000 0.5000000000 0.2500000000  Biso 1.0 K
K14 1.0000000000 0.5000000000 0.0000000000 0.2500000000  Biso 1.0 K
K15 1.0000000000 0.0000000000 0.5000000000 0.7500000000  Biso 1.0 K
K16 1.0000000000 0.5000000000 0.0000000000 0.7500000000  Biso 1.0 K
Te17 1.0000000000 0.0000000000 0.0000000000 0.0000000000  Biso 1.0 Te
Te18 1.0000000000 0.5000000000 0.5000000000 0.5000000000  Biso 1.0 Te
