# AFLOW.org Repositories
# C11N4   [ORC,ORC,oP15] (STD_PRIM doi:10.
data_C11N4
_pd_phase_name C11N4
_cell_length_a  3.4992554378
_cell_length_b  3.6034748426
_cell_length_c  7.3437914410
_cell_angle_alpha  90.0000000000
_cell_angle_beta  90.0000000000
_cell_angle_gamma  90.0000000000
_symmetry_space_group_name_H-M  'P1'
_symmetry_Int_Tables_Number  1
loop_
_symmetry_equiv_pos_site_id
_symmetry_equiv_pos_as_xyz
  1  x,y,z
loop_
 _atom_site_label
 _atom_site_occupancy
 _atom_site_fract_x
 _atom_site_fract_y
 _atom_site_fract_z
 _atom_site_thermal_displace_type
 _atom_site_B_iso_or_equiv
 _atom_site_type_symbol
C1 1.0000000000 0.5000000000 0.5000000000 0.2554495381  Biso 1.0 C
C2 1.0000000000 0.5000000000 0.5000000000 0.7445504619  Biso 1.0 C
C3 1.0000000000 0.0000000000 0.5000000000 0.5000000000  Biso 1.0 C
C4 1.0000000000 0.0000000000 0.0000000000 0.2787172430  Biso 1.0 C
C5 1.0000000000 0.0000000000 0.0000000000 0.7212827570  Biso 1.0 C
C6 1.0000000000 0.2305440370 0.2356221815 0.1396084221  Biso 1.0 C
C7 1.0000000000 0.7694559630 0.7643778185 0.1396084221  Biso 1.0 C
C8 1.0000000000 0.7694559630 0.2356221815 0.8603915779  Biso 1.0 C
C9 1.0000000000 0.2305440370 0.7643778185 0.8603915779  Biso 1.0 C
C10 1.0000000000 0.0000000000 0.5000000000 0.0000000000  Biso 1.0 C
C11 1.0000000000 0.0000000000 0.0000000000 0.0000000000  Biso 1.0 C
N12 1.0000000000 0.7555943729 0.2671691122 0.3809838571  Biso 1.0 N
N13 1.0000000000 0.2444056271 0.7328308878 0.3809838571  Biso 1.0 N
N14 1.0000000000 0.2444056271 0.2671691122 0.6190161429  Biso 1.0 N
N15 1.0000000000 0.7555943729 0.7328308878 0.6190161429  Biso 1.0 N
