# AFLOW.org Repositories
# C11N4   [TET,TET,tP15] (STD_PRIM doi:10.
data_C11N4
_pd_phase_name C11N4
_cell_length_a  3.5401935374
_cell_length_b  3.5401935374
_cell_length_c  6.9989375980
_cell_angle_alpha  90.0000000000
_cell_angle_beta  90.0000000000
_cell_angle_gamma  90.0000000000
_symmetry_space_group_name_H-M  'P1'
_symmetry_Int_Tables_Number  1
loop_
_symmetry_equiv_pos_site_id
_symmetry_equiv_pos_as_xyz
  1  x,y,z
loop_
 _atom_site_label
 _atom_site_occupancy
 _atom_site_fract_x
 _atom_site_fract_y
 _atom_site_fract_z
 _atom_site_thermal_displace_type
 _atom_site_B_iso_or_equiv
 _atom_site_type_symbol
C1 1.0000000000 0.0000000000 0.5000000000 0.2567201820  Biso 1.0 C
C2 1.0000000000 0.5000000000 0.0000000000 0.7432798180  Biso 1.0 C
C3 1.0000000000 0.0000000000 0.5000000000 0.7432798180  Biso 1.0 C
C4 1.0000000000 0.5000000000 0.0000000000 0.2567201820  Biso 1.0 C
C5 1.0000000000 0.0000000000 0.0000000000 0.0000000000  Biso 1.0 C
C6 1.0000000000 0.5000000000 0.5000000000 0.0000000000  Biso 1.0 C
C7 1.0000000000 0.2552903784 0.2552903784 0.1279556799  Biso 1.0 C
C8 1.0000000000 0.7447096216 0.7447096216 0.1279556799  Biso 1.0 C
C9 1.0000000000 0.2552903784 0.7447096216 0.8720443201  Biso 1.0 C
C10 1.0000000000 0.7447096216 0.2552903784 0.8720443201  Biso 1.0 C
C11 1.0000000000 0.0000000000 0.0000000000 0.5000000000  Biso 1.0 C
N12 1.0000000000 0.2366629288 0.2366629288 0.6249062540  Biso 1.0 N
N13 1.0000000000 0.7633370712 0.7633370712 0.6249062540  Biso 1.0 N
N14 1.0000000000 0.2366629288 0.7633370712 0.3750937460  Biso 1.0 N
N15 1.0000000000 0.7633370712 0.2366629288 0.3750937460  Biso 1.0 N
