# AFLOW.org Repositories
# C1   [HEX,HEX,hP12] (STD_PRIM doi:10.101
data_C1
_pd_phase_name C1
_cell_length_a  2.5212561934
_cell_length_b  2.5212561934
_cell_length_c  12.4321496375
_cell_angle_alpha  90.0000000000
_cell_angle_beta  90.0000000000
_cell_angle_gamma  120.0000000000
_symmetry_space_group_name_H-M  'P1'
_symmetry_Int_Tables_Number  1
loop_
_symmetry_equiv_pos_site_id
_symmetry_equiv_pos_as_xyz
  1  x,y,z
loop_
 _atom_site_label
 _atom_site_occupancy
 _atom_site_fract_x
 _atom_site_fract_y
 _atom_site_fract_z
 _atom_site_thermal_displace_type
 _atom_site_B_iso_or_equiv
 _atom_site_type_symbol
C1 1.0000000000 0.0000000000 0.0000000000 0.1868675311  Biso 1.0 C
C2 1.0000000000 0.0000000000 0.0000000000 0.6868675311  Biso 1.0 C
C3 1.0000000000 0.0000000000 0.0000000000 0.8131324689  Biso 1.0 C
C4 1.0000000000 0.0000000000 0.0000000000 0.3131324689  Biso 1.0 C
C5 1.0000000000 0.3333330561 0.6666669439 0.5207676298  Biso 1.0 C
C6 1.0000000000 0.6666669439 0.3333330561 0.0207676298  Biso 1.0 C
C7 1.0000000000 0.6666669439 0.3333330561 0.4792323702  Biso 1.0 C
C8 1.0000000000 0.3333330561 0.6666669439 0.9792323702  Biso 1.0 C
C9 1.0000000000 0.3333228674 0.6666771326 0.6450970994  Biso 1.0 C
C10 1.0000000000 0.6666771326 0.3333228674 0.1450970994  Biso 1.0 C
C11 1.0000000000 0.6666771326 0.3333228674 0.3549029006  Biso 1.0 C
C12 1.0000000000 0.3333228674 0.6666771326 0.8549029006  Biso 1.0 C
