# AFLOW.org Repositories
# C1   [HEX,HEX,hP8] (STD_PRIM doi:10.1016
data_C1
_pd_phase_name C1
_cell_length_a  2.5188228875
_cell_length_b  2.5188228875
_cell_length_c  8.3067228043
_cell_angle_alpha  90.0000000000
_cell_angle_beta  90.0000000000
_cell_angle_gamma  120.0000000000
_symmetry_space_group_name_H-M  'P1'
_symmetry_Int_Tables_Number  1
loop_
_symmetry_equiv_pos_site_id
_symmetry_equiv_pos_as_xyz
  1  x,y,z
loop_
 _atom_site_label
 _atom_site_occupancy
 _atom_site_fract_x
 _atom_site_fract_y
 _atom_site_fract_z
 _atom_site_thermal_displace_type
 _atom_site_B_iso_or_equiv
 _atom_site_type_symbol
C1 1.0000000000 0.0000000000 0.0000000000 0.0929752262  Biso 1.0 C
C2 1.0000000000 0.0000000000 0.0000000000 0.5929752262  Biso 1.0 C
C3 1.0000000000 0.0000000000 0.0000000000 0.9070247738  Biso 1.0 C
C4 1.0000000000 0.0000000000 0.0000000000 0.4070247738  Biso 1.0 C
C5 1.0000000000 0.6666779718 0.3333559436 0.1555404302  Biso 1.0 C
C6 1.0000000000 0.3333220282 0.6666440564 0.6555404302  Biso 1.0 C
C7 1.0000000000 0.3333220282 0.6666440564 0.8444595698  Biso 1.0 C
C8 1.0000000000 0.6666779718 0.3333559436 0.3444595698  Biso 1.0 C
