# AFLOW.org Repositories
# C1   [HEX,HEX,hP12] (STD_PRIM doi:10.101
data_C1
_pd_phase_name C1
_cell_length_a  2.4677982049
_cell_length_b  2.4677982049
_cell_length_c  34.4261703480
_cell_angle_alpha  90.0000000000
_cell_angle_beta  90.0000000000
_cell_angle_gamma  120.0000000000
_symmetry_space_group_name_H-M  'P1'
_symmetry_Int_Tables_Number  1
loop_
_symmetry_equiv_pos_site_id
_symmetry_equiv_pos_as_xyz
  1  x,y,z
loop_
 _atom_site_label
 _atom_site_occupancy
 _atom_site_fract_x
 _atom_site_fract_y
 _atom_site_fract_z
 _atom_site_thermal_displace_type
 _atom_site_B_iso_or_equiv
 _atom_site_type_symbol
C1 1.0000000000 0.1666683795 0.8333316205 0.0035312503  Biso 1.0 C
C2 1.0000000000 0.8333316205 0.1666683795 0.5035312503  Biso 1.0 C
C3 1.0000000000 0.1666676204 0.8333323796 0.2652027241  Biso 1.0 C
C4 1.0000000000 0.8333323796 0.1666676204 0.7652027241  Biso 1.0 C
C5 1.0000000000 0.1666874651 0.8333125349 0.3842709918  Biso 1.0 C
C6 1.0000000000 0.8333125349 0.1666874651 0.8842709918  Biso 1.0 C
C7 1.0000000000 0.1666675732 0.8333324268 0.5035263367  Biso 1.0 C
C8 1.0000000000 0.8333324268 0.1666675732 0.0035263367  Biso 1.0 C
C9 1.0000000000 0.1666683016 0.8333316984 0.7651973397  Biso 1.0 C
C10 1.0000000000 0.8333316984 0.1666683016 0.2651973397  Biso 1.0 C
C11 1.0000000000 0.5000175279 0.5000175279 0.3842713574  Biso 1.0 C
C12 1.0000000000 0.4999824721 0.4999824721 0.8842713574  Biso 1.0 C
