# AFLOW.org Repositories
# C1Co2Ta4   [FCC,FCC,cF112] (STD_PRIM doi
data_C1Co2Ta4
_pd_phase_name C1Co2Ta4
_cell_length_a  8.2710728408
_cell_length_b  8.2710728408
_cell_length_c  8.2710728408
_cell_angle_alpha  60.0000000000
_cell_angle_beta  60.0000000000
_cell_angle_gamma  60.0000000000
_symmetry_space_group_name_H-M  'P1'
_symmetry_Int_Tables_Number  1
loop_
_symmetry_equiv_pos_site_id
_symmetry_equiv_pos_as_xyz
  1  x,y,z
loop_
 _atom_site_label
 _atom_site_occupancy
 _atom_site_fract_x
 _atom_site_fract_y
 _atom_site_fract_z
 _atom_site_thermal_displace_type
 _atom_site_B_iso_or_equiv
 _atom_site_type_symbol
C1 1.0000000000 0.5000000000 0.5000000000 0.5000000000  Biso 1.0 C
C2 1.0000000000 0.0000000000 0.0000000000 0.5000000000  Biso 1.0 C
C3 1.0000000000 0.0000000000 0.5000000000 0.5000000000  Biso 1.0 C
C4 1.0000000000 0.0000000000 0.5000000000 0.0000000000  Biso 1.0 C
Co5 1.0000000000 0.6459190131 0.7846936623 0.7846936623  Biso 1.0 Co
Co6 1.0000000000 0.2846936623 0.1459190131 0.7846936623  Biso 1.0 Co
Co7 1.0000000000 0.2846936623 0.7846936623 0.7846936623  Biso 1.0 Co
Co8 1.0000000000 0.2846936623 0.7846936623 0.1459190131  Biso 1.0 Co
Co9 1.0000000000 0.7153063377 0.8540809869 0.2153063377  Biso 1.0 Co
Co10 1.0000000000 0.3540809869 0.2153063377 0.2153063377  Biso 1.0 Co
Co11 1.0000000000 0.7153063377 0.2153063377 0.2153063377  Biso 1.0 Co
Co12 1.0000000000 0.7153063377 0.2153063377 0.8540809869  Biso 1.0 Co
Ta13 1.0000000000 0.0000000000 0.0000000000 0.0000000000  Biso 1.0 Ta
Ta14 1.0000000000 0.5000000000 0.5000000000 0.0000000000  Biso 1.0 Ta
Ta15 1.0000000000 0.5000000000 0.0000000000 0.0000000000  Biso 1.0 Ta
Ta16 1.0000000000 0.5000000000 0.0000000000 0.5000000000  Biso 1.0 Ta
Ta17 1.0000000000 0.6883932150 0.5616067850 0.1883932150  Biso 1.0 Ta
Ta18 1.0000000000 0.0616067850 0.1883932150 0.5616067850  Biso 1.0 Ta
Ta19 1.0000000000 0.6883932150 0.5616067850 0.5616067850  Biso 1.0 Ta
Ta20 1.0000000000 0.0616067850 0.1883932150 0.1883932150  Biso 1.0 Ta
Ta21 1.0000000000 0.6883932150 0.1883932150 0.5616067850  Biso 1.0 Ta
Ta22 1.0000000000 0.0616067850 0.5616067850 0.1883932150  Biso 1.0 Ta
Ta23 1.0000000000 0.9383932150 0.8116067850 0.8116067850  Biso 1.0 Ta
Ta24 1.0000000000 0.3116067850 0.4383932150 0.4383932150  Biso 1.0 Ta
Ta25 1.0000000000 0.9383932150 0.8116067850 0.4383932150  Biso 1.0 Ta
Ta26 1.0000000000 0.3116067850 0.4383932150 0.8116067850  Biso 1.0 Ta
Ta27 1.0000000000 0.3116067850 0.8116067850 0.4383932150  Biso 1.0 Ta
Ta28 1.0000000000 0.9383932150 0.4383932150 0.8116067850  Biso 1.0 Ta
