# AFLOW.org Repositories
# C1Cr3Nb3   [FCC,FCC,cF112] (STD_PRIM doi
data_C1Cr3Nb3
_pd_phase_name C1Cr3Nb3
_cell_length_a  8.2109897495
_cell_length_b  8.2109897495
_cell_length_c  8.2109897495
_cell_angle_alpha  60.0000000000
_cell_angle_beta  60.0000000000
_cell_angle_gamma  60.0000000000
_symmetry_space_group_name_H-M  'P1'
_symmetry_Int_Tables_Number  1
loop_
_symmetry_equiv_pos_site_id
_symmetry_equiv_pos_as_xyz
  1  x,y,z
loop_
 _atom_site_label
 _atom_site_occupancy
 _atom_site_fract_x
 _atom_site_fract_y
 _atom_site_fract_z
 _atom_site_thermal_displace_type
 _atom_site_B_iso_or_equiv
 _atom_site_type_symbol
C1 1.0000000000 0.3750000000 0.8750000000 0.8750000000  Biso 1.0 C
C2 1.0000000000 0.8750000000 0.8750000000 0.3750000000  Biso 1.0 C
C3 1.0000000000 0.8750000000 0.3750000000 0.8750000000  Biso 1.0 C
C4 1.0000000000 0.8750000000 0.8750000000 0.8750000000  Biso 1.0 C
Cr5 1.0000000000 0.8750000000 0.3750000000 0.3750000000  Biso 1.0 Cr
Cr6 1.0000000000 0.3750000000 0.3750000000 0.8750000000  Biso 1.0 Cr
Cr7 1.0000000000 0.3750000000 0.8750000000 0.3750000000  Biso 1.0 Cr
Cr8 1.0000000000 0.3750000000 0.3750000000 0.3750000000  Biso 1.0 Cr
Cr9 1.0000000000 0.4871702797 0.1709432401 0.1709432401  Biso 1.0 Cr
Cr10 1.0000000000 0.1709432401 0.1709432401 0.4871702797  Biso 1.0 Cr
Cr11 1.0000000000 0.1709432401 0.4871702797 0.1709432401  Biso 1.0 Cr
Cr12 1.0000000000 0.1709432401 0.1709432401 0.1709432401  Biso 1.0 Cr
Cr13 1.0000000000 0.5790567599 0.5790567599 0.2628297203  Biso 1.0 Cr
Cr14 1.0000000000 0.2628297203 0.5790567599 0.5790567599  Biso 1.0 Cr
Cr15 1.0000000000 0.5790567599 0.2628297203 0.5790567599  Biso 1.0 Cr
Cr16 1.0000000000 0.5790567599 0.5790567599 0.5790567599  Biso 1.0 Cr
Nb17 1.0000000000 0.1908899073 0.8091100927 0.8091100927  Biso 1.0 Nb
Nb18 1.0000000000 0.8091100927 0.1908899073 0.1908899073  Biso 1.0 Nb
Nb19 1.0000000000 0.1908899073 0.1908899073 0.8091100927  Biso 1.0 Nb
Nb20 1.0000000000 0.8091100927 0.8091100927 0.1908899073  Biso 1.0 Nb
Nb21 1.0000000000 0.1908899073 0.8091100927 0.1908899073  Biso 1.0 Nb
Nb22 1.0000000000 0.8091100927 0.1908899073 0.8091100927  Biso 1.0 Nb
Nb23 1.0000000000 0.9408899073 0.9408899073 0.5591100927  Biso 1.0 Nb
Nb24 1.0000000000 0.5591100927 0.5591100927 0.9408899073  Biso 1.0 Nb
Nb25 1.0000000000 0.9408899073 0.5591100927 0.5591100927  Biso 1.0 Nb
Nb26 1.0000000000 0.5591100927 0.9408899073 0.9408899073  Biso 1.0 Nb
Nb27 1.0000000000 0.5591100927 0.9408899073 0.5591100927  Biso 1.0 Nb
Nb28 1.0000000000 0.9408899073 0.5591100927 0.9408899073  Biso 1.0 Nb
