# AFLOW.org Repositories
# C1Ga1Ta2   [HEX,HEX,hP8] (STD_PRIM doi:1
data_C1Ga1Ta2
_pd_phase_name C1Ga1Ta2
_cell_length_a  3.1382957238
_cell_length_b  3.1382957238
_cell_length_c  13.7303704139
_cell_angle_alpha  90.0000000000
_cell_angle_beta  90.0000000000
_cell_angle_gamma  120.0000000000
_symmetry_space_group_name_H-M  'P1'
_symmetry_Int_Tables_Number  1
loop_
_symmetry_equiv_pos_site_id
_symmetry_equiv_pos_as_xyz
  1  x,y,z
loop_
 _atom_site_label
 _atom_site_occupancy
 _atom_site_fract_x
 _atom_site_fract_y
 _atom_site_fract_z
 _atom_site_thermal_displace_type
 _atom_site_B_iso_or_equiv
 _atom_site_type_symbol
C1 1.0000000000 0.0000000000 0.0000000000 0.0000000000  Biso 1.0 C
C2 1.0000000000 0.0000000000 0.0000000000 0.5000000000  Biso 1.0 C
Ga3 1.0000000000 0.6666918913 0.3333837826 0.7500000000  Biso 1.0 Ga
Ga4 1.0000000000 0.3333081087 0.6666162174 0.2500000000  Biso 1.0 Ga
Ta5 1.0000000000 0.6666765599 0.3333531197 0.0907623253  Biso 1.0 Ta
Ta6 1.0000000000 0.3333234401 0.6666468803 0.5907623253  Biso 1.0 Ta
Ta7 1.0000000000 0.3333234401 0.6666468803 0.9092376747  Biso 1.0 Ta
Ta8 1.0000000000 0.6666765599 0.3333531197 0.4092376747  Biso 1.0 Ta
