# AFLOW.org Repositories
# C1Ga1Sc2   [HEX,HEX,hP8] (STD_PRIM doi:1
data_C1Ga1Sc2
_pd_phase_name C1Ga1Sc2
_cell_length_a  3.3550983937
_cell_length_b  3.3550983937
_cell_length_c  14.8504795296
_cell_angle_alpha  90.0000000000
_cell_angle_beta  90.0000000000
_cell_angle_gamma  120.0000000000
_symmetry_space_group_name_H-M  'P1'
_symmetry_Int_Tables_Number  1
loop_
_symmetry_equiv_pos_site_id
_symmetry_equiv_pos_as_xyz
  1  x,y,z
loop_
 _atom_site_label
 _atom_site_occupancy
 _atom_site_fract_x
 _atom_site_fract_y
 _atom_site_fract_z
 _atom_site_thermal_displace_type
 _atom_site_B_iso_or_equiv
 _atom_site_type_symbol
C1 1.0000000000 0.0000000000 0.0000000000 0.0000000000  Biso 1.0 C
C2 1.0000000000 0.0000000000 0.0000000000 0.5000000000  Biso 1.0 C
Ga3 1.0000000000 0.3333655288 0.6666827644 0.7500000000  Biso 1.0 Ga
Ga4 1.0000000000 0.6666344712 0.3333172356 0.2500000000  Biso 1.0 Ga
Sc5 1.0000000000 0.3333293976 0.6666646988 0.0847005094  Biso 1.0 Sc
Sc6 1.0000000000 0.6666706024 0.3333353012 0.5847005094  Biso 1.0 Sc
Sc7 1.0000000000 0.6666706024 0.3333353012 0.9152994906  Biso 1.0 Sc
Sc8 1.0000000000 0.3333293976 0.6666646988 0.4152994906  Biso 1.0 Sc
