# AFLOW.org Repositories
# C1Ge1V2   [HEX,HEX,hP8] (STD_PRIM doi:10
data_C1Ge1V2
_pd_phase_name C1Ge1V2
_cell_length_a  3.0480830435
_cell_length_b  3.0480830435
_cell_length_c  12.0922650880
_cell_angle_alpha  90.0000000000
_cell_angle_beta  90.0000000000
_cell_angle_gamma  120.0000000000
_symmetry_space_group_name_H-M  'P1'
_symmetry_Int_Tables_Number  1
loop_
_symmetry_equiv_pos_site_id
_symmetry_equiv_pos_as_xyz
  1  x,y,z
loop_
 _atom_site_label
 _atom_site_occupancy
 _atom_site_fract_x
 _atom_site_fract_y
 _atom_site_fract_z
 _atom_site_thermal_displace_type
 _atom_site_B_iso_or_equiv
 _atom_site_type_symbol
C1 1.0000000000 0.0000000000 0.0000000000 0.0000000000  Biso 1.0 C
C2 1.0000000000 0.0000000000 0.0000000000 0.5000000000  Biso 1.0 C
Ge3 1.0000000000 0.6666517545 0.3333035091 0.7500000000  Biso 1.0 Ge
Ge4 1.0000000000 0.3333482455 0.6666964909 0.2500000000  Biso 1.0 Ge
V5 1.0000000000 0.6666643352 0.3333286704 0.0892966766  Biso 1.0 V
V6 1.0000000000 0.3333356648 0.6666713296 0.5892966766  Biso 1.0 V
V7 1.0000000000 0.3333356648 0.6666713296 0.9107033234  Biso 1.0 V
V8 1.0000000000 0.6666643352 0.3333286704 0.4107033234  Biso 1.0 V
