# AFLOW.org Repositories
# C1H1N1   [CUB,CUB,cP12] (STD_PRIM doi:10
data_C1H1N1
_pd_phase_name C1H1N1
_cell_length_a  4.0305914270
_cell_length_b  4.0305914270
_cell_length_c  4.0305914270
_cell_angle_alpha  90.0000000000
_cell_angle_beta  90.0000000000
_cell_angle_gamma  90.0000000000
_symmetry_space_group_name_H-M  'P1'
_symmetry_Int_Tables_Number  1
loop_
_symmetry_equiv_pos_site_id
_symmetry_equiv_pos_as_xyz
  1  x,y,z
loop_
 _atom_site_label
 _atom_site_occupancy
 _atom_site_fract_x
 _atom_site_fract_y
 _atom_site_fract_z
 _atom_site_thermal_displace_type
 _atom_site_B_iso_or_equiv
 _atom_site_type_symbol
C1 1.0000000000 0.4236912840 0.4236912840 0.5763087160  Biso 1.0 C
C2 1.0000000000 0.0763087160 0.5763087160 0.0763087160  Biso 1.0 C
C3 1.0000000000 0.5763087160 0.9236912840 0.9236912840  Biso 1.0 C
C4 1.0000000000 0.9236912840 0.0763087160 0.4236912840  Biso 1.0 C
H5 1.0000000000 0.5802892078 0.5802892078 0.4197107922  Biso 1.0 H
H6 1.0000000000 0.9197107922 0.4197107922 0.9197107922  Biso 1.0 H
H7 1.0000000000 0.4197107922 0.0802892078 0.0802892078  Biso 1.0 H
H8 1.0000000000 0.0802892078 0.9197107922 0.5802892078  Biso 1.0 H
N9 1.0000000000 0.8874046951 0.8874046951 0.1125953049  Biso 1.0 N
N10 1.0000000000 0.6125953049 0.1125953049 0.6125953049  Biso 1.0 N
N11 1.0000000000 0.1125953049 0.3874046951 0.3874046951  Biso 1.0 N
N12 1.0000000000 0.3874046951 0.6125953049 0.8874046951  Biso 1.0 N
