# AFLOW.org Repositories
# C1Mo4Ni2   [FCC,FCC,cF112] (STD_PRIM doi
data_C1Mo4Ni2
_pd_phase_name C1Mo4Ni2
_cell_length_a  8.0072355929
_cell_length_b  8.0072355929
_cell_length_c  8.0072355929
_cell_angle_alpha  60.0000000000
_cell_angle_beta  60.0000000000
_cell_angle_gamma  60.0000000000
_symmetry_space_group_name_H-M  'P1'
_symmetry_Int_Tables_Number  1
loop_
_symmetry_equiv_pos_site_id
_symmetry_equiv_pos_as_xyz
  1  x,y,z
loop_
 _atom_site_label
 _atom_site_occupancy
 _atom_site_fract_x
 _atom_site_fract_y
 _atom_site_fract_z
 _atom_site_thermal_displace_type
 _atom_site_B_iso_or_equiv
 _atom_site_type_symbol
C1 1.0000000000 0.1250000000 0.1250000000 0.1250000000  Biso 1.0 C
C2 1.0000000000 0.6250000000 0.1250000000 0.1250000000  Biso 1.0 C
C3 1.0000000000 0.1250000000 0.1250000000 0.6250000000  Biso 1.0 C
C4 1.0000000000 0.1250000000 0.6250000000 0.1250000000  Biso 1.0 C
Mo5 1.0000000000 0.6250000000 0.6250000000 0.6250000000  Biso 1.0 Mo
Mo6 1.0000000000 0.1250000000 0.6250000000 0.6250000000  Biso 1.0 Mo
Mo7 1.0000000000 0.6250000000 0.6250000000 0.1250000000  Biso 1.0 Mo
Mo8 1.0000000000 0.6250000000 0.1250000000 0.6250000000  Biso 1.0 Mo
Mo9 1.0000000000 0.1893698583 0.8106301417 0.1893698583  Biso 1.0 Mo
Mo10 1.0000000000 0.8106301417 0.1893698583 0.8106301417  Biso 1.0 Mo
Mo11 1.0000000000 0.1893698583 0.1893698583 0.8106301417  Biso 1.0 Mo
Mo12 1.0000000000 0.8106301417 0.8106301417 0.1893698583  Biso 1.0 Mo
Mo13 1.0000000000 0.8106301417 0.1893698583 0.1893698583  Biso 1.0 Mo
Mo14 1.0000000000 0.1893698583 0.8106301417 0.8106301417  Biso 1.0 Mo
Mo15 1.0000000000 0.4393698583 0.4393698583 0.0606301417  Biso 1.0 Mo
Mo16 1.0000000000 0.0606301417 0.0606301417 0.4393698583  Biso 1.0 Mo
Mo17 1.0000000000 0.4393698583 0.0606301417 0.4393698583  Biso 1.0 Mo
Mo18 1.0000000000 0.0606301417 0.4393698583 0.0606301417  Biso 1.0 Mo
Mo19 1.0000000000 0.4393698583 0.0606301417 0.0606301417  Biso 1.0 Mo
Mo20 1.0000000000 0.0606301417 0.4393698583 0.4393698583  Biso 1.0 Mo
Ni21 1.0000000000 0.8322410482 0.8322410482 0.8322410482  Biso 1.0 Ni
Ni22 1.0000000000 0.5032768555 0.8322410482 0.8322410482  Biso 1.0 Ni
Ni23 1.0000000000 0.8322410482 0.8322410482 0.5032768555  Biso 1.0 Ni
Ni24 1.0000000000 0.8322410482 0.5032768555 0.8322410482  Biso 1.0 Ni
Ni25 1.0000000000 0.7467231445 0.4177589518 0.4177589518  Biso 1.0 Ni
Ni26 1.0000000000 0.4177589518 0.4177589518 0.4177589518  Biso 1.0 Ni
Ni27 1.0000000000 0.4177589518 0.4177589518 0.7467231445  Biso 1.0 Ni
Ni28 1.0000000000 0.4177589518 0.7467231445 0.4177589518  Biso 1.0 Ni
