# AFLOW.org Repositories
# C1N2   [BCT,BCT1,tI24] (STD_PRIM doi:10.
data_C1N2
_pd_phase_name C1N2
_cell_length_a  4.8928515594
_cell_length_b  4.8928515594
_cell_length_c  4.8928515594
_cell_angle_alpha  97.0813144128
_cell_angle_beta  97.0813144128
_cell_angle_gamma  138.8896218966
_symmetry_space_group_name_H-M  'P1'
_symmetry_Int_Tables_Number  1
loop_
_symmetry_equiv_pos_site_id
_symmetry_equiv_pos_as_xyz
  1  x,y,z
loop_
 _atom_site_label
 _atom_site_occupancy
 _atom_site_fract_x
 _atom_site_fract_y
 _atom_site_fract_z
 _atom_site_thermal_displace_type
 _atom_site_B_iso_or_equiv
 _atom_site_type_symbol
C1 1.0000000000 0.1250000000 0.9320265769 0.3070265769  Biso 1.0 C
C2 1.0000000000 0.6250000000 0.8179734231 0.6929734231  Biso 1.0 C
C3 1.0000000000 0.1820265769 0.8750000000 0.8070265769  Biso 1.0 C
C4 1.0000000000 0.0679734231 0.3750000000 0.1929734231  Biso 1.0 C
N5 1.0000000000 0.4035431379 0.1454070872 0.1197170885  Biso 1.0 N
N6 1.0000000000 0.0256899987 0.2838260494 0.8802829115  Biso 1.0 N
N7 1.0000000000 0.7161739506 0.5964568621 0.7418639493  Biso 1.0 N
N8 1.0000000000 0.8545929128 0.9743100013 0.2581360507  Biso 1.0 N
N9 1.0000000000 0.2243100013 0.6045929128 0.7581360507  Biso 1.0 N
N10 1.0000000000 0.8464568621 0.4661739506 0.2418639493  Biso 1.0 N
N11 1.0000000000 0.3954070872 0.1535431379 0.6197170885  Biso 1.0 N
N12 1.0000000000 0.5338260494 0.7756899987 0.3802829115  Biso 1.0 N
