# AFLOW.org Repositories
# C1Na4O4   [BCT,BCT1,tI18] (STD_PRIM doi:
data_C1Na4O4
_pd_phase_name C1Na4O4
_cell_length_a  5.7847214943
_cell_length_b  5.7847214943
_cell_length_c  5.7847214943
_cell_angle_alpha  99.9711929505
_cell_angle_beta  99.9711929505
_cell_angle_gamma  130.8206936925
_symmetry_space_group_name_H-M  'P1'
_symmetry_Int_Tables_Number  1
loop_
_symmetry_equiv_pos_site_id
_symmetry_equiv_pos_as_xyz
  1  x,y,z
loop_
 _atom_site_label
 _atom_site_occupancy
 _atom_site_fract_x
 _atom_site_fract_y
 _atom_site_fract_z
 _atom_site_thermal_displace_type
 _atom_site_B_iso_or_equiv
 _atom_site_type_symbol
C1 1.0000000000 0.5000000000 0.5000000000 0.0000000000  Biso 1.0 C
Na2 1.0000000000 0.0245803065 0.0245803065 0.3482488345  Biso 1.0 Na
Na3 1.0000000000 0.6763314719 0.6763314719 0.6517511655  Biso 1.0 Na
Na4 1.0000000000 0.9754196935 0.3236685281 0.0000000000  Biso 1.0 Na
Na5 1.0000000000 0.3236685281 0.9754196935 0.0000000000  Biso 1.0 Na
O6 1.0000000000 0.2186199834 0.2186199834 0.7760995425  Biso 1.0 O
O7 1.0000000000 0.4425204409 0.4425204409 0.2239004575  Biso 1.0 O
O8 1.0000000000 0.7813800166 0.5574795591 0.0000000000  Biso 1.0 O
O9 1.0000000000 0.5574795591 0.7813800166 0.0000000000  Biso 1.0 O
