# AFLOW.org Repositories
# C1Nb4Rh2   [FCC,FCC,cF112] (STD_PRIM doi
data_C1Nb4Rh2
_pd_phase_name C1Nb4Rh2
_cell_length_a  8.4865811698
_cell_length_b  8.4865811698
_cell_length_c  8.4865811698
_cell_angle_alpha  60.0000000000
_cell_angle_beta  60.0000000000
_cell_angle_gamma  60.0000000000
_symmetry_space_group_name_H-M  'P1'
_symmetry_Int_Tables_Number  1
loop_
_symmetry_equiv_pos_site_id
_symmetry_equiv_pos_as_xyz
  1  x,y,z
loop_
 _atom_site_label
 _atom_site_occupancy
 _atom_site_fract_x
 _atom_site_fract_y
 _atom_site_fract_z
 _atom_site_thermal_displace_type
 _atom_site_B_iso_or_equiv
 _atom_site_type_symbol
C1 1.0000000000 0.5000000000 0.5000000000 0.5000000000  Biso 1.0 C
C2 1.0000000000 0.5000000000 0.0000000000 0.5000000000  Biso 1.0 C
C3 1.0000000000 0.0000000000 0.5000000000 0.5000000000  Biso 1.0 C
C4 1.0000000000 0.5000000000 0.5000000000 0.0000000000  Biso 1.0 C
Nb5 1.0000000000 0.0000000000 0.0000000000 0.0000000000  Biso 1.0 Nb
Nb6 1.0000000000 0.0000000000 0.5000000000 0.0000000000  Biso 1.0 Nb
Nb7 1.0000000000 0.5000000000 0.0000000000 0.0000000000  Biso 1.0 Nb
Nb8 1.0000000000 0.0000000000 0.0000000000 0.5000000000  Biso 1.0 Nb
Nb9 1.0000000000 0.4421428226 0.4421428226 0.8078571774  Biso 1.0 Nb
Nb10 1.0000000000 0.8078571774 0.8078571774 0.4421428226  Biso 1.0 Nb
Nb11 1.0000000000 0.8078571774 0.4421428226 0.4421428226  Biso 1.0 Nb
Nb12 1.0000000000 0.4421428226 0.8078571774 0.8078571774  Biso 1.0 Nb
Nb13 1.0000000000 0.4421428226 0.8078571774 0.4421428226  Biso 1.0 Nb
Nb14 1.0000000000 0.8078571774 0.4421428226 0.8078571774  Biso 1.0 Nb
Nb15 1.0000000000 0.5578571774 0.1921428226 0.1921428226  Biso 1.0 Nb
Nb16 1.0000000000 0.1921428226 0.5578571774 0.5578571774  Biso 1.0 Nb
Nb17 1.0000000000 0.1921428226 0.1921428226 0.5578571774  Biso 1.0 Nb
Nb18 1.0000000000 0.5578571774 0.5578571774 0.1921428226  Biso 1.0 Nb
Nb19 1.0000000000 0.5578571774 0.1921428226 0.5578571774  Biso 1.0 Nb
Nb20 1.0000000000 0.1921428226 0.5578571774 0.1921428226  Biso 1.0 Nb
Rh21 1.0000000000 0.2137784957 0.2137784957 0.2137784957  Biso 1.0 Rh
Rh22 1.0000000000 0.2137784957 0.8586645128 0.2137784957  Biso 1.0 Rh
Rh23 1.0000000000 0.8586645128 0.2137784957 0.2137784957  Biso 1.0 Rh
Rh24 1.0000000000 0.2137784957 0.2137784957 0.8586645128  Biso 1.0 Rh
Rh25 1.0000000000 0.7862215043 0.1413354872 0.7862215043  Biso 1.0 Rh
Rh26 1.0000000000 0.7862215043 0.7862215043 0.7862215043  Biso 1.0 Rh
Rh27 1.0000000000 0.1413354872 0.7862215043 0.7862215043  Biso 1.0 Rh
Rh28 1.0000000000 0.7862215043 0.7862215043 0.1413354872  Biso 1.0 Rh
