# AFLOW.org Repositories
# C1Nb3Ni3   [FCC,FCC,cF112] (STD_PRIM doi
data_C1Nb3Ni3
_pd_phase_name C1Nb3Ni3
_cell_length_a  8.0526854164
_cell_length_b  8.0526854164
_cell_length_c  8.0526854164
_cell_angle_alpha  60.0000000000
_cell_angle_beta  60.0000000000
_cell_angle_gamma  60.0000000000
_symmetry_space_group_name_H-M  'P1'
_symmetry_Int_Tables_Number  1
loop_
_symmetry_equiv_pos_site_id
_symmetry_equiv_pos_as_xyz
  1  x,y,z
loop_
 _atom_site_label
 _atom_site_occupancy
 _atom_site_fract_x
 _atom_site_fract_y
 _atom_site_fract_z
 _atom_site_thermal_displace_type
 _atom_site_B_iso_or_equiv
 _atom_site_type_symbol
C1 1.0000000000 0.5000000000 0.5000000000 0.5000000000  Biso 1.0 C
C2 1.0000000000 0.0000000000 0.0000000000 0.5000000000  Biso 1.0 C
C3 1.0000000000 0.0000000000 0.5000000000 0.5000000000  Biso 1.0 C
C4 1.0000000000 0.0000000000 0.5000000000 0.0000000000  Biso 1.0 C
Nb5 1.0000000000 0.6829672639 0.5670327361 0.1829672639  Biso 1.0 Nb
Nb6 1.0000000000 0.0670327361 0.1829672639 0.5670327361  Biso 1.0 Nb
Nb7 1.0000000000 0.6829672639 0.5670327361 0.5670327361  Biso 1.0 Nb
Nb8 1.0000000000 0.0670327361 0.1829672639 0.1829672639  Biso 1.0 Nb
Nb9 1.0000000000 0.6829672639 0.1829672639 0.5670327361  Biso 1.0 Nb
Nb10 1.0000000000 0.0670327361 0.5670327361 0.1829672639  Biso 1.0 Nb
Nb11 1.0000000000 0.9329672639 0.8170327361 0.8170327361  Biso 1.0 Nb
Nb12 1.0000000000 0.3170327361 0.4329672639 0.4329672639  Biso 1.0 Nb
Nb13 1.0000000000 0.9329672639 0.8170327361 0.4329672639  Biso 1.0 Nb
Nb14 1.0000000000 0.3170327361 0.4329672639 0.8170327361  Biso 1.0 Nb
Nb15 1.0000000000 0.3170327361 0.8170327361 0.4329672639  Biso 1.0 Nb
Nb16 1.0000000000 0.9329672639 0.4329672639 0.8170327361  Biso 1.0 Nb
Ni17 1.0000000000 0.0000000000 0.0000000000 0.0000000000  Biso 1.0 Ni
Ni18 1.0000000000 0.5000000000 0.5000000000 0.0000000000  Biso 1.0 Ni
Ni19 1.0000000000 0.5000000000 0.0000000000 0.0000000000  Biso 1.0 Ni
Ni20 1.0000000000 0.5000000000 0.0000000000 0.5000000000  Biso 1.0 Ni
Ni21 1.0000000000 0.6164025856 0.7945324715 0.7945324715  Biso 1.0 Ni
Ni22 1.0000000000 0.2945324715 0.1164025856 0.7945324715  Biso 1.0 Ni
Ni23 1.0000000000 0.2945324715 0.7945324715 0.7945324715  Biso 1.0 Ni
Ni24 1.0000000000 0.2945324715 0.7945324715 0.1164025856  Biso 1.0 Ni
Ni25 1.0000000000 0.7054675285 0.8835974144 0.2054675285  Biso 1.0 Ni
Ni26 1.0000000000 0.3835974144 0.2054675285 0.2054675285  Biso 1.0 Ni
Ni27 1.0000000000 0.7054675285 0.2054675285 0.2054675285  Biso 1.0 Ni
Ni28 1.0000000000 0.7054675285 0.2054675285 0.8835974144  Biso 1.0 Ni
