# AFLOW.org Repositories
# C1Ni2W4   [FCC,FCC,cF112] (STD_PRIM doi:
data_C1Ni2W4
_pd_phase_name C1Ni2W4
_cell_length_a  8.0234026252
_cell_length_b  8.0234026252
_cell_length_c  8.0234026252
_cell_angle_alpha  60.0000000000
_cell_angle_beta  60.0000000000
_cell_angle_gamma  60.0000000000
_symmetry_space_group_name_H-M  'P1'
_symmetry_Int_Tables_Number  1
loop_
_symmetry_equiv_pos_site_id
_symmetry_equiv_pos_as_xyz
  1  x,y,z
loop_
 _atom_site_label
 _atom_site_occupancy
 _atom_site_fract_x
 _atom_site_fract_y
 _atom_site_fract_z
 _atom_site_thermal_displace_type
 _atom_site_B_iso_or_equiv
 _atom_site_type_symbol
C1 1.0000000000 0.5000000000 0.5000000000 0.5000000000  Biso 1.0 C
C2 1.0000000000 0.5000000000 0.0000000000 0.0000000000  Biso 1.0 C
C3 1.0000000000 0.5000000000 0.0000000000 0.5000000000  Biso 1.0 C
C4 1.0000000000 0.0000000000 0.0000000000 0.5000000000  Biso 1.0 C
Ni5 1.0000000000 0.7918360287 0.6244919139 0.7918360287  Biso 1.0 Ni
Ni6 1.0000000000 0.7918360287 0.2918360287 0.1244919139  Biso 1.0 Ni
Ni7 1.0000000000 0.7918360287 0.2918360287 0.7918360287  Biso 1.0 Ni
Ni8 1.0000000000 0.1244919139 0.2918360287 0.7918360287  Biso 1.0 Ni
Ni9 1.0000000000 0.2081639713 0.7081639713 0.8755080861  Biso 1.0 Ni
Ni10 1.0000000000 0.2081639713 0.3755080861 0.2081639713  Biso 1.0 Ni
Ni11 1.0000000000 0.2081639713 0.7081639713 0.2081639713  Biso 1.0 Ni
Ni12 1.0000000000 0.8755080861 0.7081639713 0.2081639713  Biso 1.0 Ni
W13 1.0000000000 0.0000000000 0.0000000000 0.0000000000  Biso 1.0 W
W14 1.0000000000 0.0000000000 0.5000000000 0.5000000000  Biso 1.0 W
W15 1.0000000000 0.0000000000 0.5000000000 0.0000000000  Biso 1.0 W
W16 1.0000000000 0.5000000000 0.5000000000 0.0000000000  Biso 1.0 W
W17 1.0000000000 0.1840713120 0.6840713120 0.5659286880  Biso 1.0 W
W18 1.0000000000 0.5659286880 0.0659286880 0.1840713120  Biso 1.0 W
W19 1.0000000000 0.5659286880 0.6840713120 0.5659286880  Biso 1.0 W
W20 1.0000000000 0.1840713120 0.0659286880 0.1840713120  Biso 1.0 W
W21 1.0000000000 0.5659286880 0.6840713120 0.1840713120  Biso 1.0 W
W22 1.0000000000 0.1840713120 0.0659286880 0.5659286880  Biso 1.0 W
W23 1.0000000000 0.8159286880 0.9340713120 0.8159286880  Biso 1.0 W
W24 1.0000000000 0.4340713120 0.3159286880 0.4340713120  Biso 1.0 W
W25 1.0000000000 0.4340713120 0.9340713120 0.8159286880  Biso 1.0 W
W26 1.0000000000 0.8159286880 0.3159286880 0.4340713120  Biso 1.0 W
W27 1.0000000000 0.4340713120 0.3159286880 0.8159286880  Biso 1.0 W
W28 1.0000000000 0.8159286880 0.9340713120 0.4340713120  Biso 1.0 W
