# AFLOW.org Repositories
# C1O3Sr1   [ORC,ORC,oP20] (STD_PRIM doi:1
data_C1O3Sr1
_pd_phase_name C1O3Sr1
_cell_length_a  5.1716578301
_cell_length_b  6.1247063508
_cell_length_c  8.4978938077
_cell_angle_alpha  90.0000000000
_cell_angle_beta  90.0000000000
_cell_angle_gamma  90.0000000000
_symmetry_space_group_name_H-M  'P1'
_symmetry_Int_Tables_Number  1
loop_
_symmetry_equiv_pos_site_id
_symmetry_equiv_pos_as_xyz
  1  x,y,z
loop_
 _atom_site_label
 _atom_site_occupancy
 _atom_site_fract_x
 _atom_site_fract_y
 _atom_site_fract_z
 _atom_site_thermal_displace_type
 _atom_site_B_iso_or_equiv
 _atom_site_type_symbol
C1 1.0000000000 0.2500000000 0.9149599479 0.2412494129  Biso 1.0 C
C2 1.0000000000 0.7500000000 0.5850400521 0.7412494129  Biso 1.0 C
C3 1.0000000000 0.7500000000 0.0850400521 0.7587505871  Biso 1.0 C
C4 1.0000000000 0.2500000000 0.4149599479 0.2587505871  Biso 1.0 C
O5 1.0000000000 0.2500000000 0.9063850819 0.0886919243  Biso 1.0 O
O6 1.0000000000 0.7500000000 0.5936149181 0.5886919243  Biso 1.0 O
O7 1.0000000000 0.7500000000 0.0936149181 0.9113080757  Biso 1.0 O
O8 1.0000000000 0.2500000000 0.4063850819 0.4113080757  Biso 1.0 O
O9 1.0000000000 0.4676213151 0.9138750880 0.3182537409  Biso 1.0 O
O10 1.0000000000 0.5323786849 0.5861249120 0.8182537409  Biso 1.0 O
O11 1.0000000000 0.9676213151 0.0861249120 0.6817462591  Biso 1.0 O
O12 1.0000000000 0.0323786849 0.4138750880 0.1817462591  Biso 1.0 O
O13 1.0000000000 0.5323786849 0.0861249120 0.6817462591  Biso 1.0 O
O14 1.0000000000 0.4676213151 0.4138750880 0.1817462591  Biso 1.0 O
O15 1.0000000000 0.0323786849 0.9138750880 0.3182537409  Biso 1.0 O
O16 1.0000000000 0.9676213151 0.5861249120 0.8182537409  Biso 1.0 O
Sr17 1.0000000000 0.2500000000 0.7571494144 0.5840189471  Biso 1.0 Sr
Sr18 1.0000000000 0.7500000000 0.7428505856 0.0840189471  Biso 1.0 Sr
Sr19 1.0000000000 0.7500000000 0.2428505856 0.4159810529  Biso 1.0 Sr
Sr20 1.0000000000 0.2500000000 0.2571494144 0.9159810529  Biso 1.0 Sr
