# AFLOW.org Repositories
# C1Pb1Ti2   [HEX,HEX,hP8] (STD_PRIM doi:1
data_C1Pb1Ti2
_pd_phase_name C1Pb1Ti2
_cell_length_a  3.2696775280
_cell_length_b  3.2696775280
_cell_length_c  14.1683670326
_cell_angle_alpha  90.0000000000
_cell_angle_beta  90.0000000000
_cell_angle_gamma  120.0000000000
_symmetry_space_group_name_H-M  'P1'
_symmetry_Int_Tables_Number  1
loop_
_symmetry_equiv_pos_site_id
_symmetry_equiv_pos_as_xyz
  1  x,y,z
loop_
 _atom_site_label
 _atom_site_occupancy
 _atom_site_fract_x
 _atom_site_fract_y
 _atom_site_fract_z
 _atom_site_thermal_displace_type
 _atom_site_B_iso_or_equiv
 _atom_site_type_symbol
C1 1.0000000000 0.0000000000 0.0000000000 0.0000000000  Biso 1.0 C
C2 1.0000000000 0.0000000000 0.0000000000 0.5000000000  Biso 1.0 C
Pb3 1.0000000000 0.3333134101 0.6666865899 0.7500000000  Biso 1.0 Pb
Pb4 1.0000000000 0.6666865899 0.3333134101 0.2500000000  Biso 1.0 Pb
Ti5 1.0000000000 0.3333326145 0.6666673855 0.0778076800  Biso 1.0 Ti
Ti6 1.0000000000 0.6666673855 0.3333326145 0.5778076800  Biso 1.0 Ti
Ti7 1.0000000000 0.6666673855 0.3333326145 0.9221923200  Biso 1.0 Ti
Ti8 1.0000000000 0.3333326145 0.6666673855 0.4221923200  Biso 1.0 Ti
