# AFLOW.org Repositories
# C1Si1   [HEX,HEX,hP8] (STD_PRIM doi:10.1
data_C1Si1
_pd_phase_name C1Si1
_cell_length_a  3.0934088725
_cell_length_b  3.0934088725
_cell_length_c  10.1258272423
_cell_angle_alpha  90.0000000000
_cell_angle_beta  90.0000000000
_cell_angle_gamma  120.0000000000
_symmetry_space_group_name_H-M  'P1'
_symmetry_Int_Tables_Number  1
loop_
_symmetry_equiv_pos_site_id
_symmetry_equiv_pos_as_xyz
  1  x,y,z
loop_
 _atom_site_label
 _atom_site_occupancy
 _atom_site_fract_x
 _atom_site_fract_y
 _atom_site_fract_z
 _atom_site_thermal_displace_type
 _atom_site_B_iso_or_equiv
 _atom_site_type_symbol
C1 1.0000000000 0.0000000000 0.0000000000 0.0000000000  Biso 1.0 C
C2 1.0000000000 0.0000000000 0.0000000000 0.5001943673  Biso 1.0 C
C3 1.0000000000 0.6666846097 0.3333692194 0.2495752053  Biso 1.0 C
C4 1.0000000000 0.3333153903 0.6666307806 0.7495752053  Biso 1.0 C
Si5 1.0000000000 0.0000000000 0.0000000000 0.1876407463  Biso 1.0 Si
Si6 1.0000000000 0.0000000000 0.0000000000 0.6876407463  Biso 1.0 Si
Si7 1.0000000000 0.6666841668 0.3333683336 0.4375896811  Biso 1.0 Si
Si8 1.0000000000 0.3333158332 0.6666316664 0.9375896811  Biso 1.0 Si
