# AFLOW.org Repositories
# C1Si1   [HEX,HEX,hP4] (STD_PRIM doi:10.1
data_C1Si1
_pd_phase_name C1Si1
_cell_length_a  3.0918243720
_cell_length_b  3.0918243720
_cell_length_c  5.0725706111
_cell_angle_alpha  90.0000000000
_cell_angle_beta  90.0000000000
_cell_angle_gamma  120.0000000000
_symmetry_space_group_name_H-M  'P1'
_symmetry_Int_Tables_Number  1
loop_
_symmetry_equiv_pos_site_id
_symmetry_equiv_pos_as_xyz
  1  x,y,z
loop_
 _atom_site_label
 _atom_site_occupancy
 _atom_site_fract_x
 _atom_site_fract_y
 _atom_site_fract_z
 _atom_site_thermal_displace_type
 _atom_site_B_iso_or_equiv
 _atom_site_type_symbol
C1 1.0000000000 0.6666584574 0.3333292287 0.8754227675  Biso 1.0 C
C2 1.0000000000 0.3333415426 0.6666707713 0.3754227675  Biso 1.0 C
Si3 1.0000000000 0.6666614135 0.3333307068 0.4995772325  Biso 1.0 Si
Si4 1.0000000000 0.3333385865 0.6666692932 0.0000000000  Biso 1.0 Si
