# AFLOW.org Repositories
# C1Si1   [HEX,HEX,hP32] (STD_PRIM doi:10.
data_C1Si1
_pd_phase_name C1Si1
_cell_length_a  3.0942201078
_cell_length_b  3.0942201078
_cell_length_c  40.4924882201
_cell_angle_alpha  90.0000000000
_cell_angle_beta  90.0000000000
_cell_angle_gamma  120.0000000000
_symmetry_space_group_name_H-M  'P1'
_symmetry_Int_Tables_Number  1
loop_
_symmetry_equiv_pos_site_id
_symmetry_equiv_pos_as_xyz
  1  x,y,z
loop_
 _atom_site_label
 _atom_site_occupancy
 _atom_site_fract_x
 _atom_site_fract_y
 _atom_site_fract_z
 _atom_site_thermal_displace_type
 _atom_site_B_iso_or_equiv
 _atom_site_type_symbol
C1 1.0000000000 0.6666632923 0.3333265845 0.0469795380  Biso 1.0 C
C2 1.0000000000 0.3333367077 0.6666734155 0.5469795380  Biso 1.0 C
C3 1.0000000000 0.3333195743 0.6666391486 0.1093797882  Biso 1.0 C
C4 1.0000000000 0.6666804257 0.3333608514 0.6093797882  Biso 1.0 C
C5 1.0000000000 0.0000000000 0.0000000000 0.1718194060  Biso 1.0 C
C6 1.0000000000 0.0000000000 0.0000000000 0.6718194060  Biso 1.0 C
C7 1.0000000000 0.6666817903 0.3333635806 0.2344786072  Biso 1.0 C
C8 1.0000000000 0.3333182097 0.6666364194 0.7344786072  Biso 1.0 C
C9 1.0000000000 0.0000000000 0.0000000000 0.2968061522  Biso 1.0 C
C10 1.0000000000 0.0000000000 0.0000000000 0.7968061522  Biso 1.0 C
C11 1.0000000000 0.3333182000 0.6666364001 0.3594799202  Biso 1.0 C
C12 1.0000000000 0.6666818000 0.3333635999 0.8594799202  Biso 1.0 C
C13 1.0000000000 0.0000000000 0.0000000000 0.4218801278  Biso 1.0 C
C14 1.0000000000 0.0000000000 0.0000000000 0.9218801278  Biso 1.0 C
C15 1.0000000000 0.6666654781 0.3333309562 0.4843195862  Biso 1.0 C
C16 1.0000000000 0.3333345219 0.6666690438 0.9843195862  Biso 1.0 C
Si17 1.0000000000 0.6666631153 0.3333262306 0.0000000000  Biso 1.0 Si
Si18 1.0000000000 0.3333368847 0.6666737694 0.4999809585  Biso 1.0 Si
Si19 1.0000000000 0.3333351089 0.6666702179 0.0625051789  Biso 1.0 Si
Si20 1.0000000000 0.6666648911 0.3333297821 0.5625051789  Biso 1.0 Si
Si21 1.0000000000 0.0000000000 0.0000000000 0.1249443290  Biso 1.0 Si
Si22 1.0000000000 0.0000000000 0.0000000000 0.6249443290  Biso 1.0 Si
Si23 1.0000000000 0.6666817439 0.3333634878 0.1874823322  Biso 1.0 Si
Si24 1.0000000000 0.3333182561 0.6666365122 0.6874823322  Biso 1.0 Si
Si25 1.0000000000 0.0000000000 0.0000000000 0.2499716745  Biso 1.0 Si
Si26 1.0000000000 0.0000000000 0.0000000000 0.7499716745  Biso 1.0 Si
Si27 1.0000000000 0.3333183164 0.6666366328 0.3124806883  Biso 1.0 Si
Si28 1.0000000000 0.6666816836 0.3333633672 0.8124806883  Biso 1.0 Si
Si29 1.0000000000 0.0000000000 0.0000000000 0.3750064973  Biso 1.0 Si
Si30 1.0000000000 0.0000000000 0.0000000000 0.8750064973  Biso 1.0 Si
Si31 1.0000000000 0.6666802420 0.3333604839 0.4374452155  Biso 1.0 Si
Si32 1.0000000000 0.3333197580 0.6666395161 0.9374452155  Biso 1.0 Si
