# AFLOW.org Repositories
# C1Ti2Tl1   [HEX,HEX,hP8] (STD_PRIM doi:1
data_C1Ti2Tl1
_pd_phase_name C1Ti2Tl1
_cell_length_a  3.2147336450
_cell_length_b  3.2147336450
_cell_length_c  14.3324393474
_cell_angle_alpha  90.0000000000
_cell_angle_beta  90.0000000000
_cell_angle_gamma  120.0000000000
_symmetry_space_group_name_H-M  'P1'
_symmetry_Int_Tables_Number  1
loop_
_symmetry_equiv_pos_site_id
_symmetry_equiv_pos_as_xyz
  1  x,y,z
loop_
 _atom_site_label
 _atom_site_occupancy
 _atom_site_fract_x
 _atom_site_fract_y
 _atom_site_fract_z
 _atom_site_thermal_displace_type
 _atom_site_B_iso_or_equiv
 _atom_site_type_symbol
C1 1.0000000000 0.0000000000 0.0000000000 0.0000000000  Biso 1.0 C
C2 1.0000000000 0.0000000000 0.0000000000 0.5000000000  Biso 1.0 C
Ti3 1.0000000000 0.3333380767 0.6666690384 0.0786139333  Biso 1.0 Ti
Ti4 1.0000000000 0.6666619233 0.3333309616 0.5786139333  Biso 1.0 Ti
Ti5 1.0000000000 0.6666619233 0.3333309616 0.9213860667  Biso 1.0 Ti
Ti6 1.0000000000 0.3333380767 0.6666690384 0.4213860667  Biso 1.0 Ti
Tl7 1.0000000000 0.3333665586 0.6666832793 0.7500000000  Biso 1.0 Tl
Tl8 1.0000000000 0.6666334414 0.3333167207 0.2500000000  Biso 1.0 Tl
