# AFLOW.org Repositories
# C1Ti2   [FCC,FCC,cF48] (STD_PRIM doi:10.
data_C1Ti2
_pd_phase_name C1Ti2
_cell_length_a  6.1980676998
_cell_length_b  6.1980676998
_cell_length_c  6.1980676998
_cell_angle_alpha  60.0000000000
_cell_angle_beta  60.0000000000
_cell_angle_gamma  60.0000000000
_symmetry_space_group_name_H-M  'P1'
_symmetry_Int_Tables_Number  1
loop_
_symmetry_equiv_pos_site_id
_symmetry_equiv_pos_as_xyz
  1  x,y,z
loop_
 _atom_site_label
 _atom_site_occupancy
 _atom_site_fract_x
 _atom_site_fract_y
 _atom_site_fract_z
 _atom_site_thermal_displace_type
 _atom_site_B_iso_or_equiv
 _atom_site_type_symbol
C1 1.0000000000 0.1250000000 0.1250000000 0.1250000000  Biso 1.0 C
C2 1.0000000000 0.1250000000 0.1250000000 0.6250000000  Biso 1.0 C
C3 1.0000000000 0.1250000000 0.6250000000 0.1250000000  Biso 1.0 C
C4 1.0000000000 0.6250000000 0.1250000000 0.1250000000  Biso 1.0 C
Ti5 1.0000000000 0.3696710310 0.3696710310 0.3696710310  Biso 1.0 Ti
Ti6 1.0000000000 0.3696710310 0.3696710310 0.8909869071  Biso 1.0 Ti
Ti7 1.0000000000 0.3696710310 0.8909869071 0.3696710310  Biso 1.0 Ti
Ti8 1.0000000000 0.8909869071 0.3696710310 0.3696710310  Biso 1.0 Ti
Ti9 1.0000000000 0.8803289690 0.8803289690 0.3590130929  Biso 1.0 Ti
Ti10 1.0000000000 0.8803289690 0.8803289690 0.8803289690  Biso 1.0 Ti
Ti11 1.0000000000 0.8803289690 0.3590130929 0.8803289690  Biso 1.0 Ti
Ti12 1.0000000000 0.3590130929 0.8803289690 0.8803289690  Biso 1.0 Ti
