# AFLOW.org Repositories
# C1Tl1Zr2   [HEX,HEX,hP8] (STD_PRIM doi:1
data_C1Tl1Zr2
_pd_phase_name C1Tl1Zr2
_cell_length_a  3.3913037860
_cell_length_b  3.3913037860
_cell_length_c  15.1437709686
_cell_angle_alpha  90.0000000000
_cell_angle_beta  90.0000000000
_cell_angle_gamma  120.0000000000
_symmetry_space_group_name_H-M  'P1'
_symmetry_Int_Tables_Number  1
loop_
_symmetry_equiv_pos_site_id
_symmetry_equiv_pos_as_xyz
  1  x,y,z
loop_
 _atom_site_label
 _atom_site_occupancy
 _atom_site_fract_x
 _atom_site_fract_y
 _atom_site_fract_z
 _atom_site_thermal_displace_type
 _atom_site_B_iso_or_equiv
 _atom_site_type_symbol
C1 1.0000000000 0.0000000000 0.0000000000 0.0000000000  Biso 1.0 C
C2 1.0000000000 0.0000000000 0.0000000000 0.5000000000  Biso 1.0 C
Tl3 1.0000000000 0.3333782847 0.6666891424 0.7500000000  Biso 1.0 Tl
Tl4 1.0000000000 0.6666217153 0.3333108576 0.2500000000  Biso 1.0 Tl
Zr5 1.0000000000 0.3333394092 0.6666697046 0.0813126914  Biso 1.0 Zr
Zr6 1.0000000000 0.6666605908 0.3333302954 0.5813126914  Biso 1.0 Zr
Zr7 1.0000000000 0.6666605908 0.3333302954 0.9186873086  Biso 1.0 Zr
Zr8 1.0000000000 0.3333394092 0.6666697046 0.4186873086  Biso 1.0 Zr
