# AFLOW.org Repositories
# C1W2   [ORC,ORC,oP12] (STD_PRIM doi:10.1
data_C1W2
_pd_phase_name C1W2
_cell_length_a  4.7648961983
_cell_length_b  5.2646934570
_cell_length_c  6.1413403574
_cell_angle_alpha  90.0000000000
_cell_angle_beta  90.0000000000
_cell_angle_gamma  90.0000000000
_symmetry_space_group_name_H-M  'P1'
_symmetry_Int_Tables_Number  1
loop_
_symmetry_equiv_pos_site_id
_symmetry_equiv_pos_as_xyz
  1  x,y,z
loop_
 _atom_site_label
 _atom_site_occupancy
 _atom_site_fract_x
 _atom_site_fract_y
 _atom_site_fract_z
 _atom_site_thermal_displace_type
 _atom_site_B_iso_or_equiv
 _atom_site_type_symbol
C1 1.0000000000 0.0000000000 0.2500000000 0.3788471309  Biso 1.0 C
C2 1.0000000000 0.5000000000 0.7500000000 0.1211528691  Biso 1.0 C
C3 1.0000000000 0.0000000000 0.7500000000 0.6211528691  Biso 1.0 C
C4 1.0000000000 0.5000000000 0.2500000000 0.8788471309  Biso 1.0 C
W5 1.0000000000 0.7558377131 0.0807795227 0.1232371794  Biso 1.0 W
W6 1.0000000000 0.7441622869 0.5807795227 0.3767628206  Biso 1.0 W
W7 1.0000000000 0.2441622869 0.4192204773 0.1232371794  Biso 1.0 W
W8 1.0000000000 0.2558377131 0.9192204773 0.3767628206  Biso 1.0 W
W9 1.0000000000 0.2441622869 0.9192204773 0.8767628206  Biso 1.0 W
W10 1.0000000000 0.2558377131 0.4192204773 0.6232371794  Biso 1.0 W
W11 1.0000000000 0.7558377131 0.5807795227 0.8767628206  Biso 1.0 W
W12 1.0000000000 0.7441622869 0.0807795227 0.6232371794  Biso 1.0 W
