# AFLOW.org Repositories
# C2Co1Sc1   [TET,TET,tP8] (STD_PRIM doi:1
data_C2Co1Sc1
_pd_phase_name C2Co1Sc1
_cell_length_a  3.3741781969
_cell_length_b  3.3741781969
_cell_length_c  7.1464775834
_cell_angle_alpha  90.0000000000
_cell_angle_beta  90.0000000000
_cell_angle_gamma  90.0000000000
_symmetry_space_group_name_H-M  'P1'
_symmetry_Int_Tables_Number  1
loop_
_symmetry_equiv_pos_site_id
_symmetry_equiv_pos_as_xyz
  1  x,y,z
loop_
 _atom_site_label
 _atom_site_occupancy
 _atom_site_fract_x
 _atom_site_fract_y
 _atom_site_fract_z
 _atom_site_thermal_displace_type
 _atom_site_B_iso_or_equiv
 _atom_site_type_symbol
C1 1.0000000000 0.2500000000 0.2500000000 0.1418947115  Biso 1.0 C
C2 1.0000000000 0.7500000000 0.7500000000 0.8581052885  Biso 1.0 C
C3 1.0000000000 0.2500000000 0.2500000000 0.3405243128  Biso 1.0 C
C4 1.0000000000 0.7500000000 0.7500000000 0.6594756872  Biso 1.0 C
Co5 1.0000000000 0.2500000000 0.7500000000 0.0000000000  Biso 1.0 Co
Co6 1.0000000000 0.7500000000 0.2500000000 0.0000000000  Biso 1.0 Co
Sc7 1.0000000000 0.2500000000 0.2500000000 0.6574631021  Biso 1.0 Sc
Sc8 1.0000000000 0.7500000000 0.7500000000 0.3425368979  Biso 1.0 Sc
