# AFLOW.org Repositories
# C2Co1Th1   [ORCC,ORCC,oS8] (STD_PRIM doi
data_C2Co1Th1
_pd_phase_name C2Co1Th1
_cell_length_a  3.8492761152
_cell_length_b  3.8492761152
_cell_length_c  3.9461705597
_cell_angle_alpha  90.0000000000
_cell_angle_beta  90.0000000000
_cell_angle_gamma  108.3283723343
_symmetry_space_group_name_H-M  'P1'
_symmetry_Int_Tables_Number  1
loop_
_symmetry_equiv_pos_site_id
_symmetry_equiv_pos_as_xyz
  1  x,y,z
loop_
 _atom_site_label
 _atom_site_occupancy
 _atom_site_fract_x
 _atom_site_fract_y
 _atom_site_fract_z
 _atom_site_thermal_displace_type
 _atom_site_B_iso_or_equiv
 _atom_site_type_symbol
C1 1.0000000000 0.5388194230 0.1505504481 0.5000000000  Biso 1.0 C
C2 1.0000000000 0.8494495519 0.4611805770 0.5000000000  Biso 1.0 C
Co3 1.0000000000 0.3945155843 0.6054844157 0.5000000000  Biso 1.0 Co
Th4 1.0000000000 0.0022154408 0.9977845592 0.0000000000  Biso 1.0 Th
