# AFLOW.org Repositories
# C2N2Zn1   [CUB,CUB,cP10] (STD_PRIM doi:1
data_C2N2Zn1
_pd_phase_name C2N2Zn1
_cell_length_a  5.8854353513
_cell_length_b  5.8854353513
_cell_length_c  5.8854353513
_cell_angle_alpha  90.0000000000
_cell_angle_beta  90.0000000000
_cell_angle_gamma  90.0000000000
_symmetry_space_group_name_H-M  'P1'
_symmetry_Int_Tables_Number  1
loop_
_symmetry_equiv_pos_site_id
_symmetry_equiv_pos_as_xyz
  1  x,y,z
loop_
 _atom_site_label
 _atom_site_occupancy
 _atom_site_fract_x
 _atom_site_fract_y
 _atom_site_fract_z
 _atom_site_thermal_displace_type
 _atom_site_B_iso_or_equiv
 _atom_site_type_symbol
C1 1.0000000000 0.8043461578 0.8043461578 0.1956538422  Biso 1.0 C
C2 1.0000000000 0.1956538422 0.1956538422 0.1956538422  Biso 1.0 C
C3 1.0000000000 0.1956538422 0.8043461578 0.8043461578  Biso 1.0 C
C4 1.0000000000 0.8043461578 0.1956538422 0.8043461578  Biso 1.0 C
N5 1.0000000000 0.6900662994 0.6900662994 0.3099337006  Biso 1.0 N
N6 1.0000000000 0.3099337006 0.3099337006 0.3099337006  Biso 1.0 N
N7 1.0000000000 0.3099337006 0.6900662994 0.6900662994  Biso 1.0 N
N8 1.0000000000 0.6900662994 0.3099337006 0.6900662994  Biso 1.0 N
Zn9 1.0000000000 0.0000000000 0.0000000000 0.0000000000  Biso 1.0 Zn
Zn10 1.0000000000 0.5000000000 0.5000000000 0.5000000000  Biso 1.0 Zn
