# AFLOW.org Repositories
# C2Na2Pd1   [HEX,HEX,hP5] (STD_PRIM doi:1
data_C2Na2Pd1
_pd_phase_name C2Na2Pd1
_cell_length_a  4.4715463089
_cell_length_b  4.4715463089
_cell_length_c  5.2900392145
_cell_angle_alpha  90.0000000000
_cell_angle_beta  90.0000000000
_cell_angle_gamma  120.0000000000
_symmetry_space_group_name_H-M  'P1'
_symmetry_Int_Tables_Number  1
loop_
_symmetry_equiv_pos_site_id
_symmetry_equiv_pos_as_xyz
  1  x,y,z
loop_
 _atom_site_label
 _atom_site_occupancy
 _atom_site_fract_x
 _atom_site_fract_y
 _atom_site_fract_z
 _atom_site_thermal_displace_type
 _atom_site_B_iso_or_equiv
 _atom_site_type_symbol
C1 1.0000000000 0.0000000000 0.0000000000 0.3805373433  Biso 1.0 C
C2 1.0000000000 0.0000000000 0.0000000000 0.6194626567  Biso 1.0 C
Na3 1.0000000000 0.3333400505 0.6666700253 0.2793141807  Biso 1.0 Na
Na4 1.0000000000 0.6666599495 0.3333299747 0.7206858193  Biso 1.0 Na
Pd5 1.0000000000 0.0000000000 0.0000000000 0.0000000000  Biso 1.0 Pd
