# AFLOW.org Repositories
# C2Pu1W1   [ORC,ORC,oP16] (STD_PRIM doi:1
data_C2Pu1W1
_pd_phase_name C2Pu1W1
_cell_length_a  3.2876529388
_cell_length_b  5.7109817599
_cell_length_c  10.9910947384
_cell_angle_alpha  90.0000000000
_cell_angle_beta  90.0000000000
_cell_angle_gamma  90.0000000000
_symmetry_space_group_name_H-M  'P1'
_symmetry_Int_Tables_Number  1
loop_
_symmetry_equiv_pos_site_id
_symmetry_equiv_pos_as_xyz
  1  x,y,z
loop_
 _atom_site_label
 _atom_site_occupancy
 _atom_site_fract_x
 _atom_site_fract_y
 _atom_site_fract_z
 _atom_site_thermal_displace_type
 _atom_site_B_iso_or_equiv
 _atom_site_type_symbol
C1 1.0000000000 0.2500000000 0.1627762877 0.2451055350  Biso 1.0 C
C2 1.0000000000 0.7500000000 0.3372237123 0.7451055350  Biso 1.0 C
C3 1.0000000000 0.7500000000 0.8372237123 0.7548944650  Biso 1.0 C
C4 1.0000000000 0.2500000000 0.6627762877 0.2548944650  Biso 1.0 C
C5 1.0000000000 0.2500000000 0.7368568776 0.9897363402  Biso 1.0 C
C6 1.0000000000 0.7500000000 0.7631431224 0.4897363402  Biso 1.0 C
C7 1.0000000000 0.7500000000 0.2631431224 0.0102636598  Biso 1.0 C
C8 1.0000000000 0.2500000000 0.2368568776 0.5102636598  Biso 1.0 C
Pu9 1.0000000000 0.2500000000 0.0847143633 0.8604387239  Biso 1.0 Pu
Pu10 1.0000000000 0.7500000000 0.4152856367 0.3604387239  Biso 1.0 Pu
Pu11 1.0000000000 0.7500000000 0.9152856367 0.1395612761  Biso 1.0 Pu
Pu12 1.0000000000 0.2500000000 0.5847143633 0.6395612761  Biso 1.0 Pu
W13 1.0000000000 0.2500000000 0.4138203138 0.1071012958  Biso 1.0 W
W14 1.0000000000 0.7500000000 0.0861796862 0.6071012958  Biso 1.0 W
W15 1.0000000000 0.7500000000 0.5861796862 0.8928987042  Biso 1.0 W
W16 1.0000000000 0.2500000000 0.9138203138 0.3928987042  Biso 1.0 W
