# AFLOW.org Repositories
# C2U1W1   [ORC,ORC,oP16] (STD_PRIM doi:10
data_C2U1W1
_pd_phase_name C2U1W1
_cell_length_a  4.0296200315
_cell_length_b  5.5516823599
_cell_length_c  10.7005423313
_cell_angle_alpha  90.0000000000
_cell_angle_beta  90.0000000000
_cell_angle_gamma  90.0000000000
_symmetry_space_group_name_H-M  'P1'
_symmetry_Int_Tables_Number  1
loop_
_symmetry_equiv_pos_site_id
_symmetry_equiv_pos_as_xyz
  1  x,y,z
loop_
 _atom_site_label
 _atom_site_occupancy
 _atom_site_fract_x
 _atom_site_fract_y
 _atom_site_fract_z
 _atom_site_thermal_displace_type
 _atom_site_B_iso_or_equiv
 _atom_site_type_symbol
C1 1.0000000000 0.2500000000 0.5904971087 0.8782096320  Biso 1.0 C
C2 1.0000000000 0.7500000000 0.9095158560 0.3782107259  Biso 1.0 C
C3 1.0000000000 0.7500000000 0.4095028913 0.1217903680  Biso 1.0 C
C4 1.0000000000 0.2500000000 0.0904841440 0.6217892741  Biso 1.0 C
C5 1.0000000000 0.2500000000 0.7531136904 0.0011900151  Biso 1.0 C
C6 1.0000000000 0.7500000000 0.7468651763 0.5011877926  Biso 1.0 C
C7 1.0000000000 0.7500000000 0.2468863096 0.9988099849  Biso 1.0 C
C8 1.0000000000 0.2500000000 0.2531348237 0.4988122074  Biso 1.0 C
U9 1.0000000000 0.2500000000 0.0922362240 0.8569110880  Biso 1.0 U
U10 1.0000000000 0.7500000000 0.4077766344 0.3569154207  Biso 1.0 U
U11 1.0000000000 0.7500000000 0.9077637760 0.1430889120  Biso 1.0 U
U12 1.0000000000 0.2500000000 0.5922233656 0.6430845793  Biso 1.0 U
W13 1.0000000000 0.2500000000 0.4047139295 0.0807140567  Biso 1.0 W
W14 1.0000000000 0.7500000000 0.0953045174 0.5807199433  Biso 1.0 W
W15 1.0000000000 0.7500000000 0.5952860705 0.9192859433  Biso 1.0 W
W16 1.0000000000 0.2500000000 0.9046954826 0.4192800567  Biso 1.0 W
