# AFLOW.org Repositories
# C2W1Y1   [ORC,ORC,oP16] (STD_PRIM doi:10
data_C2W1Y1
_pd_phase_name C2W1Y1
_cell_length_a  3.3908383325
_cell_length_b  5.7529609801
_cell_length_c  10.8480500010
_cell_angle_alpha  90.0000000000
_cell_angle_beta  90.0000000000
_cell_angle_gamma  90.0000000000
_symmetry_space_group_name_H-M  'P1'
_symmetry_Int_Tables_Number  1
loop_
_symmetry_equiv_pos_site_id
_symmetry_equiv_pos_as_xyz
  1  x,y,z
loop_
 _atom_site_label
 _atom_site_occupancy
 _atom_site_fract_x
 _atom_site_fract_y
 _atom_site_fract_z
 _atom_site_thermal_displace_type
 _atom_site_B_iso_or_equiv
 _atom_site_type_symbol
C1 1.0000000000 0.2500000000 0.1605461282 0.2471224696  Biso 1.0 C
C2 1.0000000000 0.7500000000 0.3394538718 0.7471224696  Biso 1.0 C
C3 1.0000000000 0.7500000000 0.8394538718 0.7528775304  Biso 1.0 C
C4 1.0000000000 0.2500000000 0.6605461282 0.2528775304  Biso 1.0 C
C5 1.0000000000 0.2500000000 0.7226523593 0.9842525637  Biso 1.0 C
C6 1.0000000000 0.7500000000 0.7773476407 0.4842525637  Biso 1.0 C
C7 1.0000000000 0.7500000000 0.2773476407 0.0157474363  Biso 1.0 C
C8 1.0000000000 0.2500000000 0.2226523593 0.5157474363  Biso 1.0 C
W9 1.0000000000 0.2500000000 0.4039962569 0.1106158984  Biso 1.0 W
W10 1.0000000000 0.7500000000 0.0960037431 0.6106158984  Biso 1.0 W
W11 1.0000000000 0.7500000000 0.5960037431 0.8893841016  Biso 1.0 W
W12 1.0000000000 0.2500000000 0.9039962569 0.3893841016  Biso 1.0 W
Y13 1.0000000000 0.2500000000 0.0854723530 0.8629249636  Biso 1.0 Y
Y14 1.0000000000 0.7500000000 0.4145276470 0.3629249636  Biso 1.0 Y
Y15 1.0000000000 0.7500000000 0.9145276470 0.1370750364  Biso 1.0 Y
Y16 1.0000000000 0.2500000000 0.5854723530 0.6370750364  Biso 1.0 Y
