# AFLOW.org Repositories
# C3Ce2   [BCC,BCC,cI40] (STD_PRIM doi:10.
data_C3Ce2
_pd_phase_name C3Ce2
_cell_length_a  7.2599678316
_cell_length_b  7.2599678316
_cell_length_c  7.2599678316
_cell_angle_alpha  109.4712206345
_cell_angle_beta  109.4712206345
_cell_angle_gamma  109.4712206345
_symmetry_space_group_name_H-M  'P1'
_symmetry_Int_Tables_Number  1
loop_
_symmetry_equiv_pos_site_id
_symmetry_equiv_pos_as_xyz
  1  x,y,z
loop_
 _atom_site_label
 _atom_site_occupancy
 _atom_site_fract_x
 _atom_site_fract_y
 _atom_site_fract_z
 _atom_site_thermal_displace_type
 _atom_site_B_iso_or_equiv
 _atom_site_type_symbol
C1 1.0000000000 0.4576111265 0.7500000000 0.7076111265  Biso 1.0 C
C2 1.0000000000 0.0423888735 0.2500000000 0.7923888735  Biso 1.0 C
C3 1.0000000000 0.7500000000 0.7076111265 0.4576111265  Biso 1.0 C
C4 1.0000000000 0.2500000000 0.7923888735 0.0423888735  Biso 1.0 C
C5 1.0000000000 0.7076111265 0.4576111265 0.7500000000  Biso 1.0 C
C6 1.0000000000 0.7923888735 0.0423888735 0.2500000000  Biso 1.0 C
C7 1.0000000000 0.2500000000 0.9576111265 0.2076111265  Biso 1.0 C
C8 1.0000000000 0.7500000000 0.5423888735 0.2923888735  Biso 1.0 C
C9 1.0000000000 0.2076111265 0.2500000000 0.9576111265  Biso 1.0 C
C10 1.0000000000 0.2923888735 0.7500000000 0.5423888735  Biso 1.0 C
C11 1.0000000000 0.9576111265 0.2076111265 0.2500000000  Biso 1.0 C
C12 1.0000000000 0.5423888735 0.2923888735 0.7500000000  Biso 1.0 C
Ce13 1.0000000000 0.9041999319 0.9041999319 0.9041999319  Biso 1.0 Ce
Ce14 1.0000000000 0.0000000000 0.5000000000 0.5958000681  Biso 1.0 Ce
Ce15 1.0000000000 0.5958000681 0.0000000000 0.5000000000  Biso 1.0 Ce
Ce16 1.0000000000 0.5000000000 0.5958000681 0.0000000000  Biso 1.0 Ce
Ce17 1.0000000000 0.4041999319 0.4041999319 0.4041999319  Biso 1.0 Ce
Ce18 1.0000000000 0.0000000000 0.5000000000 0.0958000681  Biso 1.0 Ce
Ce19 1.0000000000 0.5000000000 0.0958000681 0.0000000000  Biso 1.0 Ce
Ce20 1.0000000000 0.0958000681 0.0000000000 0.5000000000  Biso 1.0 Ce
