# AFLOW.org Repositories
# C3Ir5   [ORC,ORC,oP16] (STD_PRIM doi:10.
data_C3Ir5
_pd_phase_name C3Ir5
_cell_length_a  2.9643984015
_cell_length_b  6.8628810175
_cell_length_c  10.5577812827
_cell_angle_alpha  90.0000000000
_cell_angle_beta  90.0000000000
_cell_angle_gamma  90.0000000000
_symmetry_space_group_name_H-M  'P1'
_symmetry_Int_Tables_Number  1
loop_
_symmetry_equiv_pos_site_id
_symmetry_equiv_pos_as_xyz
  1  x,y,z
loop_
 _atom_site_label
 _atom_site_occupancy
 _atom_site_fract_x
 _atom_site_fract_y
 _atom_site_fract_z
 _atom_site_thermal_displace_type
 _atom_site_B_iso_or_equiv
 _atom_site_type_symbol
C1 1.0000000000 0.5000000000 0.0000000000 0.5000000000  Biso 1.0 C
C2 1.0000000000 0.5000000000 0.5000000000 0.0000000000  Biso 1.0 C
C3 1.0000000000 0.0000000000 0.2532864392 0.7493939998  Biso 1.0 C
C4 1.0000000000 0.0000000000 0.7467135608 0.2506060002  Biso 1.0 C
C5 1.0000000000 0.0000000000 0.2467135608 0.2493939998  Biso 1.0 C
C6 1.0000000000 0.0000000000 0.7532864392 0.7506060002  Biso 1.0 C
Ir7 1.0000000000 0.0000000000 0.0000000000 0.0000000000  Biso 1.0 Ir
Ir8 1.0000000000 0.0000000000 0.5000000000 0.5000000000  Biso 1.0 Ir
Ir9 1.0000000000 0.5000000000 0.2795881708 0.8743337209  Biso 1.0 Ir
Ir10 1.0000000000 0.5000000000 0.7204118292 0.1256662791  Biso 1.0 Ir
Ir11 1.0000000000 0.5000000000 0.2204118292 0.3743337209  Biso 1.0 Ir
Ir12 1.0000000000 0.5000000000 0.7795881708 0.6256662791  Biso 1.0 Ir
Ir13 1.0000000000 0.5000000000 0.2226811117 0.6239100596  Biso 1.0 Ir
Ir14 1.0000000000 0.5000000000 0.7773188883 0.3760899404  Biso 1.0 Ir
Ir15 1.0000000000 0.5000000000 0.2773188883 0.1239100596  Biso 1.0 Ir
Ir16 1.0000000000 0.5000000000 0.7226811117 0.8760899404  Biso 1.0 Ir
