# AFLOW.org Repositories
# C3N4   [FCC,FCC,cF56] (STD_PRIM doi:10.1
data_C3N4
_pd_phase_name C3N4
_cell_length_a  4.7963780628
_cell_length_b  4.7963780628
_cell_length_c  4.7963780628
_cell_angle_alpha  60.0000000000
_cell_angle_beta  60.0000000000
_cell_angle_gamma  60.0000000000
_symmetry_space_group_name_H-M  'P1'
_symmetry_Int_Tables_Number  1
loop_
_symmetry_equiv_pos_site_id
_symmetry_equiv_pos_as_xyz
  1  x,y,z
loop_
 _atom_site_label
 _atom_site_occupancy
 _atom_site_fract_x
 _atom_site_fract_y
 _atom_site_fract_z
 _atom_site_thermal_displace_type
 _atom_site_B_iso_or_equiv
 _atom_site_type_symbol
C1 1.0000000000 0.8750000000 0.3750000000 0.8750000000  Biso 1.0 C
C2 1.0000000000 0.1250000000 0.6250000000 0.1250000000  Biso 1.0 C
C3 1.0000000000 0.5000000000 0.5000000000 0.5000000000  Biso 1.0 C
C4 1.0000000000 0.5000000000 0.0000000000 0.0000000000  Biso 1.0 C
C5 1.0000000000 0.5000000000 0.0000000000 0.5000000000  Biso 1.0 C
C6 1.0000000000 0.0000000000 0.0000000000 0.5000000000  Biso 1.0 C
N7 1.0000000000 0.7441299712 0.7676100864 0.7441299712  Biso 1.0 N
N8 1.0000000000 0.7441299712 0.2441299712 0.2676100864  Biso 1.0 N
N9 1.0000000000 0.7441299712 0.2441299712 0.7441299712  Biso 1.0 N
N10 1.0000000000 0.2676100864 0.2441299712 0.7441299712  Biso 1.0 N
N11 1.0000000000 0.2558700288 0.7558700288 0.7323899136  Biso 1.0 N
N12 1.0000000000 0.2558700288 0.2323899136 0.2558700288  Biso 1.0 N
N13 1.0000000000 0.2558700288 0.7558700288 0.2558700288  Biso 1.0 N
N14 1.0000000000 0.7323899136 0.7558700288 0.2558700288  Biso 1.0 N
