# AFLOW.org Repositories
# C3Sc4   [BCC,BCC,cI28] (STD_PRIM doi:10.
data_C3Sc4
_pd_phase_name C3Sc4
_cell_length_a  6.3595296028
_cell_length_b  6.3595296028
_cell_length_c  6.3595296028
_cell_angle_alpha  109.4712206345
_cell_angle_beta  109.4712206345
_cell_angle_gamma  109.4712206345
_symmetry_space_group_name_H-M  'P1'
_symmetry_Int_Tables_Number  1
loop_
_symmetry_equiv_pos_site_id
_symmetry_equiv_pos_as_xyz
  1  x,y,z
loop_
 _atom_site_label
 _atom_site_occupancy
 _atom_site_fract_x
 _atom_site_fract_y
 _atom_site_fract_z
 _atom_site_thermal_displace_type
 _atom_site_B_iso_or_equiv
 _atom_site_type_symbol
C1 1.0000000000 0.2500000000 0.3750000000 0.6250000000  Biso 1.0 C
C2 1.0000000000 0.7500000000 0.1250000000 0.8750000000  Biso 1.0 C
C3 1.0000000000 0.6250000000 0.8750000000 0.2500000000  Biso 1.0 C
C4 1.0000000000 0.8750000000 0.6250000000 0.7500000000  Biso 1.0 C
C5 1.0000000000 0.1250000000 0.7500000000 0.3750000000  Biso 1.0 C
C6 1.0000000000 0.3750000000 0.2500000000 0.1250000000  Biso 1.0 C
Sc7 1.0000000000 0.0000000000 0.0000000000 0.0987341627  Biso 1.0 Sc
Sc8 1.0000000000 0.5987341627 0.5000000000 0.0000000000  Biso 1.0 Sc
Sc9 1.0000000000 0.9012658373 0.4012658373 0.4012658373  Biso 1.0 Sc
Sc10 1.0000000000 0.5000000000 0.0987341627 0.5000000000  Biso 1.0 Sc
Sc11 1.0000000000 0.0000000000 0.0000000000 0.5987341627  Biso 1.0 Sc
Sc12 1.0000000000 0.0987341627 0.5000000000 0.0000000000  Biso 1.0 Sc
Sc13 1.0000000000 0.5000000000 0.5987341627 0.5000000000  Biso 1.0 Sc
Sc14 1.0000000000 0.4012658373 0.9012658373 0.9012658373  Biso 1.0 Sc
