# AFLOW.org Repositories
# C60K6   [BCC,BCC,cI132] (STD_PRIM doi:10
data_C60K6
_pd_phase_name C60K6
_cell_length_a  9.9610686490
_cell_length_b  9.9610686490
_cell_length_c  9.9610686490
_cell_angle_alpha  109.4712206345
_cell_angle_beta  109.4712206345
_cell_angle_gamma  109.4712206345
_symmetry_space_group_name_H-M  'P1'
_symmetry_Int_Tables_Number  1
loop_
_symmetry_equiv_pos_site_id
_symmetry_equiv_pos_as_xyz
  1  x,y,z
loop_
 _atom_site_label
 _atom_site_occupancy
 _atom_site_fract_x
 _atom_site_fract_y
 _atom_site_fract_z
 _atom_site_thermal_displace_type
 _atom_site_B_iso_or_equiv
 _atom_site_type_symbol
C1 1.0000000000 0.3044782850 0.2422439866 0.9377657016  Biso 1.0 C
C2 1.0000000000 0.3044782850 0.3667125835 0.0622342984  Biso 1.0 C
C3 1.0000000000 0.6955217150 0.7577560134 0.0622342984  Biso 1.0 C
C4 1.0000000000 0.6955217150 0.6332874165 0.9377657016  Biso 1.0 C
C5 1.0000000000 0.9377657016 0.6955217150 0.6332874165  Biso 1.0 C
C6 1.0000000000 0.0622342984 0.6955217150 0.7577560134  Biso 1.0 C
C7 1.0000000000 0.0622342984 0.3044782850 0.3667125835  Biso 1.0 C
C8 1.0000000000 0.9377657016 0.3044782850 0.2422439866  Biso 1.0 C
C9 1.0000000000 0.7577560134 0.0622342984 0.6955217150  Biso 1.0 C
C10 1.0000000000 0.6332874165 0.9377657016 0.6955217150  Biso 1.0 C
C11 1.0000000000 0.2422439866 0.9377657016 0.3044782850  Biso 1.0 C
C12 1.0000000000 0.3667125835 0.0622342984 0.3044782850  Biso 1.0 C
C13 1.0000000000 0.1632550891 0.1401248418 0.7730918007  Biso 1.0 C
C14 1.0000000000 0.3670330411 0.3901632884 0.2269081993  Biso 1.0 C
C15 1.0000000000 0.6329669589 0.8598751582 0.0231302472  Biso 1.0 C
C16 1.0000000000 0.8367449109 0.6098367116 0.9768697528  Biso 1.0 C
C17 1.0000000000 0.9768697528 0.8367449109 0.6098367116  Biso 1.0 C
C18 1.0000000000 0.0231302472 0.6329669589 0.8598751582  Biso 1.0 C
C19 1.0000000000 0.2269081993 0.3670330411 0.3901632884  Biso 1.0 C
C20 1.0000000000 0.7730918007 0.1632550891 0.1401248418  Biso 1.0 C
C21 1.0000000000 0.8598751582 0.0231302472 0.6329669589  Biso 1.0 C
C22 1.0000000000 0.6098367116 0.9768697528 0.8367449109  Biso 1.0 C
C23 1.0000000000 0.1401248418 0.7730918007 0.1632550891  Biso 1.0 C
C24 1.0000000000 0.3901632884 0.2269081993 0.3670330411  Biso 1.0 C
C25 1.0000000000 0.8367449109 0.8598751582 0.2269081993  Biso 1.0 C
C26 1.0000000000 0.6329669589 0.6098367116 0.7730918007  Biso 1.0 C
C27 1.0000000000 0.3670330411 0.1401248418 0.9768697528  Biso 1.0 C
C28 1.0000000000 0.1632550891 0.3901632884 0.0231302472  Biso 1.0 C
C29 1.0000000000 0.0231302472 0.1632550891 0.3901632884  Biso 1.0 C
C30 1.0000000000 0.9768697528 0.3670330411 0.1401248418  Biso 1.0 C
C31 1.0000000000 0.7730918007 0.6329669589 0.6098367116  Biso 1.0 C
C32 1.0000000000 0.2269081993 0.8367449109 0.8598751582  Biso 1.0 C
C33 1.0000000000 0.1401248418 0.9768697528 0.3670330411  Biso 1.0 C
C34 1.0000000000 0.3901632884 0.0231302472 0.1632550891  Biso 1.0 C
C35 1.0000000000 0.8598751582 0.2269081993 0.8367449109  Biso 1.0 C
C36 1.0000000000 0.6098367116 0.7730918007 0.6329669589  Biso 1.0 C
C37 1.0000000000 0.0244418986 0.1634371286 0.7353057688  Biso 1.0 C
C38 1.0000000000 0.4281313599 0.2891361299 0.2646942312  Biso 1.0 C
C39 1.0000000000 0.5718686401 0.8365628714 0.8610047700  Biso 1.0 C
C40 1.0000000000 0.9755581014 0.7108638701 0.1389952300  Biso 1.0 C
C41 1.0000000000 0.1389952300 0.9755581014 0.7108638701  Biso 1.0 C
C42 1.0000000000 0.8610047700 0.5718686401 0.8365628714  Biso 1.0 C
C43 1.0000000000 0.2646942312 0.4281313599 0.2891361299  Biso 1.0 C
C44 1.0000000000 0.7353057688 0.0244418986 0.1634371286  Biso 1.0 C
C45 1.0000000000 0.8365628714 0.8610047700 0.5718686401  Biso 1.0 C
C46 1.0000000000 0.7108638701 0.1389952300 0.9755581014  Biso 1.0 C
C47 1.0000000000 0.1634371286 0.7353057688 0.0244418986  Biso 1.0 C
C48 1.0000000000 0.2891361299 0.2646942312 0.4281313599  Biso 1.0 C
C49 1.0000000000 0.9755581014 0.8365628714 0.2646942312  Biso 1.0 C
C50 1.0000000000 0.5718686401 0.7108638701 0.7353057688  Biso 1.0 C
C51 1.0000000000 0.4281313599 0.1634371286 0.1389952300  Biso 1.0 C
C52 1.0000000000 0.0244418986 0.2891361299 0.8610047700  Biso 1.0 C
C53 1.0000000000 0.8610047700 0.0244418986 0.2891361299  Biso 1.0 C
C54 1.0000000000 0.1389952300 0.4281313599 0.1634371286  Biso 1.0 C
C55 1.0000000000 0.7353057688 0.5718686401 0.7108638701  Biso 1.0 C
C56 1.0000000000 0.2646942312 0.9755581014 0.8365628714  Biso 1.0 C
C57 1.0000000000 0.1634371286 0.1389952300 0.4281313599  Biso 1.0 C
C58 1.0000000000 0.2891361299 0.8610047700 0.0244418986  Biso 1.0 C
C59 1.0000000000 0.8365628714 0.2646942312 0.9755581014  Biso 1.0 C
C60 1.0000000000 0.7108638701 0.7353057688 0.5718686401  Biso 1.0 C
K61 1.0000000000 0.7797251985 0.2797251985 0.5000000000  Biso 1.0 K
K62 1.0000000000 0.2202748015 0.7202748015 0.5000000000  Biso 1.0 K
K63 1.0000000000 0.5000000000 0.2202748015 0.7202748015  Biso 1.0 K
K64 1.0000000000 0.5000000000 0.7797251985 0.2797251985  Biso 1.0 K
K65 1.0000000000 0.7202748015 0.5000000000 0.2202748015  Biso 1.0 K
K66 1.0000000000 0.2797251985 0.5000000000 0.7797251985  Biso 1.0 K
