# AFLOW.org Repositories
# C60Rb6   [BCC,BCC,cI132] (STD_PRIM doi:1
data_C60Rb6
_pd_phase_name C60Rb6
_cell_length_a  10.1545640859
_cell_length_b  10.1545640859
_cell_length_c  10.1545640859
_cell_angle_alpha  109.4712206345
_cell_angle_beta  109.4712206345
_cell_angle_gamma  109.4712206345
_symmetry_space_group_name_H-M  'P1'
_symmetry_Int_Tables_Number  1
loop_
_symmetry_equiv_pos_site_id
_symmetry_equiv_pos_as_xyz
  1  x,y,z
loop_
 _atom_site_label
 _atom_site_occupancy
 _atom_site_fract_x
 _atom_site_fract_y
 _atom_site_fract_z
 _atom_site_thermal_displace_type
 _atom_site_B_iso_or_equiv
 _atom_site_type_symbol
C1 1.0000000000 0.9389505588 0.7013337986 0.6402843574  Biso 1.0 C
C2 1.0000000000 0.0610494412 0.7013337986 0.7623832399  Biso 1.0 C
C3 1.0000000000 0.0610494412 0.2986662014 0.3597156426  Biso 1.0 C
C4 1.0000000000 0.9389505588 0.2986662014 0.2376167601  Biso 1.0 C
C5 1.0000000000 0.7623832399 0.0610494412 0.7013337986  Biso 1.0 C
C6 1.0000000000 0.6402843574 0.9389505588 0.7013337986  Biso 1.0 C
C7 1.0000000000 0.2376167601 0.9389505588 0.2986662014  Biso 1.0 C
C8 1.0000000000 0.3597156426 0.0610494412 0.2986662014  Biso 1.0 C
C9 1.0000000000 0.2986662014 0.2376167601 0.9389505588  Biso 1.0 C
C10 1.0000000000 0.2986662014 0.3597156426 0.0610494412  Biso 1.0 C
C11 1.0000000000 0.7013337986 0.7623832399 0.0610494412  Biso 1.0 C
C12 1.0000000000 0.7013337986 0.6402843574 0.9389505588  Biso 1.0 C
C13 1.0000000000 0.9773361956 0.8398869797 0.6172731810  Biso 1.0 C
C14 1.0000000000 0.0226638044 0.6399369854 0.8625507841  Biso 1.0 C
C15 1.0000000000 0.2226137987 0.3600630146 0.3827268190  Biso 1.0 C
C16 1.0000000000 0.7773862013 0.1601130203 0.1374492159  Biso 1.0 C
C17 1.0000000000 0.8625507841 0.0226638044 0.6399369854  Biso 1.0 C
C18 1.0000000000 0.6172731810 0.9773361956 0.8398869797  Biso 1.0 C
C19 1.0000000000 0.1374492159 0.7773862013 0.1601130203  Biso 1.0 C
C20 1.0000000000 0.3827268190 0.2226137987 0.3600630146  Biso 1.0 C
C21 1.0000000000 0.1601130203 0.1374492159 0.7773862013  Biso 1.0 C
C22 1.0000000000 0.3600630146 0.3827268190 0.2226137987  Biso 1.0 C
C23 1.0000000000 0.6399369854 0.8625507841 0.0226638044  Biso 1.0 C
C24 1.0000000000 0.8398869797 0.6172731810 0.9773361956  Biso 1.0 C
C25 1.0000000000 0.0226638044 0.1601130203 0.3827268190  Biso 1.0 C
C26 1.0000000000 0.9773361956 0.3600630146 0.1374492159  Biso 1.0 C
C27 1.0000000000 0.7773862013 0.6399369854 0.6172731810  Biso 1.0 C
C28 1.0000000000 0.2226137987 0.8398869797 0.8625507841  Biso 1.0 C
C29 1.0000000000 0.1374492159 0.9773361956 0.3600630146  Biso 1.0 C
C30 1.0000000000 0.3827268190 0.0226638044 0.1601130203  Biso 1.0 C
C31 1.0000000000 0.8625507841 0.2226137987 0.8398869797  Biso 1.0 C
C32 1.0000000000 0.6172731810 0.7773862013 0.6399369854  Biso 1.0 C
C33 1.0000000000 0.8398869797 0.8625507841 0.2226137987  Biso 1.0 C
C34 1.0000000000 0.6399369854 0.6172731810 0.7773862013  Biso 1.0 C
C35 1.0000000000 0.3600630146 0.1374492159 0.9773361956  Biso 1.0 C
C36 1.0000000000 0.1601130203 0.3827268190 0.0226638044  Biso 1.0 C
C37 1.0000000000 0.1364129841 0.9760574782 0.7163015674  Biso 1.0 C
C38 1.0000000000 0.8635870159 0.5798885833 0.8396444940  Biso 1.0 C
C39 1.0000000000 0.2597559107 0.4201114167 0.2836984326  Biso 1.0 C
C40 1.0000000000 0.7402440893 0.0239425218 0.1603555060  Biso 1.0 C
C41 1.0000000000 0.8396444940 0.8635870159 0.5798885833  Biso 1.0 C
C42 1.0000000000 0.7163015674 0.1364129841 0.9760574782  Biso 1.0 C
C43 1.0000000000 0.1603555060 0.7402440893 0.0239425218  Biso 1.0 C
C44 1.0000000000 0.2836984326 0.2597559107 0.4201114167  Biso 1.0 C
C45 1.0000000000 0.0239425218 0.1603555060 0.7402440893  Biso 1.0 C
C46 1.0000000000 0.4201114167 0.2836984326 0.2597559107  Biso 1.0 C
C47 1.0000000000 0.5798885833 0.8396444940 0.8635870159  Biso 1.0 C
C48 1.0000000000 0.9760574782 0.7163015674 0.1364129841  Biso 1.0 C
C49 1.0000000000 0.8635870159 0.0239425218 0.2836984326  Biso 1.0 C
C50 1.0000000000 0.1364129841 0.4201114167 0.1603555060  Biso 1.0 C
C51 1.0000000000 0.7402440893 0.5798885833 0.7163015674  Biso 1.0 C
C52 1.0000000000 0.2597559107 0.9760574782 0.8396444940  Biso 1.0 C
C53 1.0000000000 0.1603555060 0.1364129841 0.4201114167  Biso 1.0 C
C54 1.0000000000 0.2836984326 0.8635870159 0.0239425218  Biso 1.0 C
C55 1.0000000000 0.8396444940 0.2597559107 0.9760574782  Biso 1.0 C
C56 1.0000000000 0.7163015674 0.7402440893 0.5798885833  Biso 1.0 C
C57 1.0000000000 0.9760574782 0.8396444940 0.2597559107  Biso 1.0 C
C58 1.0000000000 0.5798885833 0.7163015674 0.7402440893  Biso 1.0 C
C59 1.0000000000 0.4201114167 0.1603555060 0.1364129841  Biso 1.0 C
C60 1.0000000000 0.0239425218 0.2836984326 0.8635870159  Biso 1.0 C
Rb61 1.0000000000 0.5000000000 0.2200737912 0.7200737912  Biso 1.0 Rb
Rb62 1.0000000000 0.5000000000 0.7799262088 0.2799262088  Biso 1.0 Rb
Rb63 1.0000000000 0.7200737912 0.5000000000 0.2200737912  Biso 1.0 Rb
Rb64 1.0000000000 0.2799262088 0.5000000000 0.7799262088  Biso 1.0 Rb
Rb65 1.0000000000 0.7799262088 0.2799262088 0.5000000000  Biso 1.0 Rb
Rb66 1.0000000000 0.2200737912 0.7200737912 0.5000000000  Biso 1.0 Rb
