# AFLOW.org Repositories
# Ca1Cl2   [ORC,ORC,oP12] (STD_PRIM doi:10
data_Ca1Cl2
_pd_phase_name Ca1Cl2
_cell_length_a  6.3362902436
_cell_length_b  6.9762712864
_cell_length_c  7.7281050204
_cell_angle_alpha  90.0000000000
_cell_angle_beta  90.0000000000
_cell_angle_gamma  90.0000000000
_symmetry_space_group_name_H-M  'P1'
_symmetry_Int_Tables_Number  1
loop_
_symmetry_equiv_pos_site_id
_symmetry_equiv_pos_as_xyz
  1  x,y,z
loop_
 _atom_site_label
 _atom_site_occupancy
 _atom_site_fract_x
 _atom_site_fract_y
 _atom_site_fract_z
 _atom_site_thermal_displace_type
 _atom_site_B_iso_or_equiv
 _atom_site_type_symbol
Ca1 1.0000000000 0.0000000000 0.2500000000 0.1530234720  Biso 1.0 Ca
Ca2 1.0000000000 0.5000000000 0.7500000000 0.3469765280  Biso 1.0 Ca
Ca3 1.0000000000 0.0000000000 0.7500000000 0.8469765280  Biso 1.0 Ca
Ca4 1.0000000000 0.5000000000 0.2500000000 0.6530234720  Biso 1.0 Ca
Cl5 1.0000000000 0.7365795799 0.4219261332 0.3915175671  Biso 1.0 Cl
Cl6 1.0000000000 0.7634204201 0.9219261332 0.1084824329  Biso 1.0 Cl
Cl7 1.0000000000 0.2634204201 0.0780738668 0.3915175671  Biso 1.0 Cl
Cl8 1.0000000000 0.2365795799 0.5780738668 0.1084824329  Biso 1.0 Cl
Cl9 1.0000000000 0.2634204201 0.5780738668 0.6084824329  Biso 1.0 Cl
Cl10 1.0000000000 0.2365795799 0.0780738668 0.8915175671  Biso 1.0 Cl
Cl11 1.0000000000 0.7365795799 0.9219261332 0.6084824329  Biso 1.0 Cl
Cl12 1.0000000000 0.7634204201 0.4219261332 0.8915175671  Biso 1.0 Cl
