# AFLOW.org Repositories
# Ca1F4Pd1   [BCT,BCT2,tI24] (STD_PRIM doi
data_Ca1F4Pd1
_pd_phase_name Ca1F4Pd1
_cell_length_a  6.6803079696
_cell_length_b  6.6803079696
_cell_length_c  6.6803079696
_cell_angle_alpha  130.2773428586
_cell_angle_beta  130.2773428586
_cell_angle_gamma  72.9637743707
_symmetry_space_group_name_H-M  'P1'
_symmetry_Int_Tables_Number  1
loop_
_symmetry_equiv_pos_site_id
_symmetry_equiv_pos_as_xyz
  1  x,y,z
loop_
 _atom_site_label
 _atom_site_occupancy
 _atom_site_fract_x
 _atom_site_fract_y
 _atom_site_fract_z
 _atom_site_thermal_displace_type
 _atom_site_B_iso_or_equiv
 _atom_site_type_symbol
Ca1 1.0000000000 0.2500000000 0.2500000000 0.0000000000  Biso 1.0 Ca
Ca2 1.0000000000 0.7500000000 0.7500000000 0.0000000000  Biso 1.0 Ca
F3 1.0000000000 0.3135712026 0.4568528007 0.5000000000  Biso 1.0 F
F4 1.0000000000 0.9568528007 0.8135712026 0.5000000000  Biso 1.0 F
F5 1.0000000000 0.4568528007 0.9568528007 0.1432815981  Biso 1.0 F
F6 1.0000000000 0.8135712026 0.3135712026 0.8567184019  Biso 1.0 F
F7 1.0000000000 0.1864287974 0.6864287974 0.1432815981  Biso 1.0 F
F8 1.0000000000 0.5431471993 0.0431471993 0.8567184019  Biso 1.0 F
F9 1.0000000000 0.0431471993 0.1864287974 0.5000000000  Biso 1.0 F
F10 1.0000000000 0.6864287974 0.5431471993 0.5000000000  Biso 1.0 F
Pd11 1.0000000000 0.0000000000 0.5000000000 0.5000000000  Biso 1.0 Pd
Pd12 1.0000000000 0.5000000000 0.0000000000 0.5000000000  Biso 1.0 Pd
