# AFLOW.org Repositories
# Ca1F6Sn1   [FCC,FCC,cF32] (STD_PRIM doi:
data_Ca1F6Sn1
_pd_phase_name Ca1F6Sn1
_cell_length_a  6.0799126642
_cell_length_b  6.0799126642
_cell_length_c  6.0799126642
_cell_angle_alpha  60.0000000000
_cell_angle_beta  60.0000000000
_cell_angle_gamma  60.0000000000
_symmetry_space_group_name_H-M  'P1'
_symmetry_Int_Tables_Number  1
loop_
_symmetry_equiv_pos_site_id
_symmetry_equiv_pos_as_xyz
  1  x,y,z
loop_
 _atom_site_label
 _atom_site_occupancy
 _atom_site_fract_x
 _atom_site_fract_y
 _atom_site_fract_z
 _atom_site_thermal_displace_type
 _atom_site_B_iso_or_equiv
 _atom_site_type_symbol
Ca1 1.0000000000 0.0000000000 0.0000000000 0.0000000000  Biso 1.0 Ca
F2 1.0000000000 0.2638473448 0.7361526552 0.7361526552  Biso 1.0 F
F3 1.0000000000 0.7361526552 0.2638473448 0.2638473448  Biso 1.0 F
F4 1.0000000000 0.7361526552 0.7361526552 0.2638473448  Biso 1.0 F
F5 1.0000000000 0.2638473448 0.2638473448 0.7361526552  Biso 1.0 F
F6 1.0000000000 0.7361526552 0.2638473448 0.7361526552  Biso 1.0 F
F7 1.0000000000 0.2638473448 0.7361526552 0.2638473448  Biso 1.0 F
Sn8 1.0000000000 0.5000000000 0.5000000000 0.5000000000  Biso 1.0 Sn
