# AFLOW.org Repositories
# Ca1Ge1Mg1   [ORC,ORC,oP12] (STD_PRIM doi
data_Ca1Ge1Mg1
_pd_phase_name Ca1Ge1Mg1
_cell_length_a  4.4547894313
_cell_length_b  7.5224511483
_cell_length_c  8.4070881011
_cell_angle_alpha  90.0000000000
_cell_angle_beta  90.0000000000
_cell_angle_gamma  90.0000000000
_symmetry_space_group_name_H-M  'P1'
_symmetry_Int_Tables_Number  1
loop_
_symmetry_equiv_pos_site_id
_symmetry_equiv_pos_as_xyz
  1  x,y,z
loop_
 _atom_site_label
 _atom_site_occupancy
 _atom_site_fract_x
 _atom_site_fract_y
 _atom_site_fract_z
 _atom_site_thermal_displace_type
 _atom_site_B_iso_or_equiv
 _atom_site_type_symbol
Ca1 1.0000000000 0.2500000000 0.5197355687 0.3204556849  Biso 1.0 Ca
Ca2 1.0000000000 0.7500000000 0.9802644313 0.8204556849  Biso 1.0 Ca
Ca3 1.0000000000 0.7500000000 0.4802644313 0.6795443151  Biso 1.0 Ca
Ca4 1.0000000000 0.2500000000 0.0197355687 0.1795443151  Biso 1.0 Ca
Ge5 1.0000000000 0.2500000000 0.2685505879 0.8827942394  Biso 1.0 Ge
Ge6 1.0000000000 0.7500000000 0.2314494121 0.3827942394  Biso 1.0 Ge
Ge7 1.0000000000 0.7500000000 0.7314494121 0.1172057606  Biso 1.0 Ge
Ge8 1.0000000000 0.2500000000 0.7685505879 0.6172057606  Biso 1.0 Ge
Mg9 1.0000000000 0.2500000000 0.6428972488 0.9383941823  Biso 1.0 Mg
Mg10 1.0000000000 0.7500000000 0.8571027512 0.4383941823  Biso 1.0 Mg
Mg11 1.0000000000 0.7500000000 0.3571027512 0.0616058177  Biso 1.0 Mg
Mg12 1.0000000000 0.2500000000 0.1428972488 0.5616058177  Biso 1.0 Mg
