# AFLOW.org Repositories
# Ca1Ga1Ge1   [HEX,HEX,hP12] (STD_PRIM doi
data_Ca1Ga1Ge1
_pd_phase_name Ca1Ga1Ge1
_cell_length_a  4.2421965551
_cell_length_b  4.2421965551
_cell_length_c  17.3215023117
_cell_angle_alpha  90.0000000000
_cell_angle_beta  90.0000000000
_cell_angle_gamma  120.0000000000
_symmetry_space_group_name_H-M  'P1'
_symmetry_Int_Tables_Number  1
loop_
_symmetry_equiv_pos_site_id
_symmetry_equiv_pos_as_xyz
  1  x,y,z
loop_
 _atom_site_label
 _atom_site_occupancy
 _atom_site_fract_x
 _atom_site_fract_y
 _atom_site_fract_z
 _atom_site_thermal_displace_type
 _atom_site_B_iso_or_equiv
 _atom_site_type_symbol
Ca1 1.0000000000 0.0000000000 0.0000000000 0.0000000000  Biso 1.0 Ca
Ca2 1.0000000000 0.0000000000 0.0000000000 0.5000000000  Biso 1.0 Ca
Ca3 1.0000000000 0.0000000000 0.0000000000 0.2500000000  Biso 1.0 Ca
Ca4 1.0000000000 0.0000000000 0.0000000000 0.7500000000  Biso 1.0 Ca
Ga5 1.0000000000 0.3333039061 0.6666519530 0.1522360049  Biso 1.0 Ga
Ga6 1.0000000000 0.6666960939 0.3333480470 0.6522360049  Biso 1.0 Ga
Ga7 1.0000000000 0.6666960939 0.3333480470 0.8477639951  Biso 1.0 Ga
Ga8 1.0000000000 0.3333039061 0.6666519530 0.3477639951  Biso 1.0 Ga
Ge9 1.0000000000 0.3333096832 0.6666548416 0.6097895761  Biso 1.0 Ge
Ge10 1.0000000000 0.6666903168 0.3333451584 0.1097895761  Biso 1.0 Ge
Ge11 1.0000000000 0.6666903168 0.3333451584 0.3902104239  Biso 1.0 Ge
Ge12 1.0000000000 0.3333096832 0.6666548416 0.8902104239  Biso 1.0 Ge
