# AFLOW.org Repositories
# Ca1Hg1Sn1   [HEX,HEX,hP6] (STD_PRIM doi:
data_Ca1Hg1Sn1
_pd_phase_name Ca1Hg1Sn1
_cell_length_a  4.9130816449
_cell_length_b  4.9130816449
_cell_length_c  7.8858680781
_cell_angle_alpha  90.0000000000
_cell_angle_beta  90.0000000000
_cell_angle_gamma  120.0000000000
_symmetry_space_group_name_H-M  'P1'
_symmetry_Int_Tables_Number  1
loop_
_symmetry_equiv_pos_site_id
_symmetry_equiv_pos_as_xyz
  1  x,y,z
loop_
 _atom_site_label
 _atom_site_occupancy
 _atom_site_fract_x
 _atom_site_fract_y
 _atom_site_fract_z
 _atom_site_thermal_displace_type
 _atom_site_B_iso_or_equiv
 _atom_site_type_symbol
Ca1 1.0000000000 0.0000000000 0.0000000000 0.2496287476  Biso 1.0 Ca
Ca2 1.0000000000 0.0000000000 0.0000000000 0.7496287476  Biso 1.0 Ca
Hg3 1.0000000000 0.3333341128 0.6666670564 0.0639807631  Biso 1.0 Hg
Hg4 1.0000000000 0.6666658872 0.3333329436 0.5639807631  Biso 1.0 Hg
Sn5 1.0000000000 0.3333314366 0.6666657183 0.4613904893  Biso 1.0 Sn
Sn6 1.0000000000 0.6666685634 0.3333342817 0.9613904893  Biso 1.0 Sn
