# AFLOW.org Repositories
# Ca1H2   [ORC,ORC,oP12] (STD_PRIM doi:10.
data_Ca1H2
_pd_phase_name Ca1H2
_cell_length_a  3.5621619631
_cell_length_b  5.8823784131
_cell_length_c  6.7530337627
_cell_angle_alpha  90.0000000000
_cell_angle_beta  90.0000000000
_cell_angle_gamma  90.0000000000
_symmetry_space_group_name_H-M  'P1'
_symmetry_Int_Tables_Number  1
loop_
_symmetry_equiv_pos_site_id
_symmetry_equiv_pos_as_xyz
  1  x,y,z
loop_
 _atom_site_label
 _atom_site_occupancy
 _atom_site_fract_x
 _atom_site_fract_y
 _atom_site_fract_z
 _atom_site_thermal_displace_type
 _atom_site_B_iso_or_equiv
 _atom_site_type_symbol
Ca1 1.0000000000 0.2500000000 0.2395930165 0.8895399974  Biso 1.0 Ca
Ca2 1.0000000000 0.7500000000 0.2604069835 0.3895399974  Biso 1.0 Ca
Ca3 1.0000000000 0.7500000000 0.7604069835 0.1104600026  Biso 1.0 Ca
Ca4 1.0000000000 0.2500000000 0.7395930165 0.6104600026  Biso 1.0 Ca
H5 1.0000000000 0.2500000000 0.3555793873 0.5725074337  Biso 1.0 H
H6 1.0000000000 0.7500000000 0.1444206127 0.0725074337  Biso 1.0 H
H7 1.0000000000 0.7500000000 0.6444206127 0.4274925663  Biso 1.0 H
H8 1.0000000000 0.2500000000 0.8555793873 0.9274925663  Biso 1.0 H
H9 1.0000000000 0.2500000000 0.9741890844 0.3227662772  Biso 1.0 H
H10 1.0000000000 0.7500000000 0.5258109156 0.8227662772  Biso 1.0 H
H11 1.0000000000 0.7500000000 0.0258109156 0.6772337228  Biso 1.0 H
H12 1.0000000000 0.2500000000 0.4741890844 0.1772337228  Biso 1.0 H
