# AFLOW.org Repositories
# Ca1In2   [HEX,HEX,hP6] (STD_PRIM doi:10.
data_Ca1In2
_pd_phase_name Ca1In2
_cell_length_a  4.9562032719
_cell_length_b  4.9562032719
_cell_length_c  7.7900131187
_cell_angle_alpha  90.0000000000
_cell_angle_beta  90.0000000000
_cell_angle_gamma  120.0000000000
_symmetry_space_group_name_H-M  'P1'
_symmetry_Int_Tables_Number  1
loop_
_symmetry_equiv_pos_site_id
_symmetry_equiv_pos_as_xyz
  1  x,y,z
loop_
 _atom_site_label
 _atom_site_occupancy
 _atom_site_fract_x
 _atom_site_fract_y
 _atom_site_fract_z
 _atom_site_thermal_displace_type
 _atom_site_B_iso_or_equiv
 _atom_site_type_symbol
Ca1 1.0000000000 0.0000000000 0.0000000000 0.2500000000  Biso 1.0 Ca
Ca2 1.0000000000 0.0000000000 0.0000000000 0.7500000000  Biso 1.0 Ca
In3 1.0000000000 0.6666786704 0.3333213296 0.0476921452  Biso 1.0 In
In4 1.0000000000 0.3333213296 0.6666786704 0.5476921452  Biso 1.0 In
In5 1.0000000000 0.3333213296 0.6666786704 0.9523078548  Biso 1.0 In
In6 1.0000000000 0.6666786704 0.3333213296 0.4523078548  Biso 1.0 In
