# AFLOW.org Repositories
# Ca1In4Pd1   [ORCC,ORCC,oS24] (STD_PRIM d
data_Ca1In4Pd1
_pd_phase_name Ca1In4Pd1
_cell_length_a  8.7267089572
_cell_length_b  8.7267089572
_cell_length_c  7.6149529539
_cell_angle_alpha  90.0000000000
_cell_angle_beta  90.0000000000
_cell_angle_gamma  150.0758947201
_symmetry_space_group_name_H-M  'P1'
_symmetry_Int_Tables_Number  1
loop_
_symmetry_equiv_pos_site_id
_symmetry_equiv_pos_as_xyz
  1  x,y,z
loop_
 _atom_site_label
 _atom_site_occupancy
 _atom_site_fract_x
 _atom_site_fract_y
 _atom_site_fract_z
 _atom_site_thermal_displace_type
 _atom_site_B_iso_or_equiv
 _atom_site_type_symbol
Ca1 1.0000000000 0.8726333712 0.1273666288 0.2500000000  Biso 1.0 Ca
Ca2 1.0000000000 0.1273666288 0.8726333712 0.7500000000  Biso 1.0 Ca
In3 1.0000000000 0.6828126951 0.3171873049 0.0498555655  Biso 1.0 In
In4 1.0000000000 0.3171873049 0.6828126951 0.5498555655  Biso 1.0 In
In5 1.0000000000 0.6828126951 0.3171873049 0.4501444345  Biso 1.0 In
In6 1.0000000000 0.3171873049 0.6828126951 0.9501444345  Biso 1.0 In
In7 1.0000000000 0.0660844036 0.9339155964 0.2500000000  Biso 1.0 In
In8 1.0000000000 0.9339155964 0.0660844036 0.7500000000  Biso 1.0 In
In9 1.0000000000 0.5000000000 0.5000000000 0.0000000000  Biso 1.0 In
In10 1.0000000000 0.5000000000 0.5000000000 0.5000000000  Biso 1.0 In
Pd11 1.0000000000 0.2275313577 0.7724686423 0.2500000000  Biso 1.0 Pd
Pd12 1.0000000000 0.7724686423 0.2275313577 0.7500000000  Biso 1.0 Pd
