# AFLOW.org Repositories
# Ca1Ir2P2   [HEX,HEX,hP15] (STD_PRIM doi:
data_Ca1Ir2P2
_pd_phase_name Ca1Ir2P2
_cell_length_a  6.6352628215
_cell_length_b  6.6352628215
_cell_length_c  7.0585307217
_cell_angle_alpha  90.0000000000
_cell_angle_beta  90.0000000000
_cell_angle_gamma  120.0000000000
_symmetry_space_group_name_H-M  'P1'
_symmetry_Int_Tables_Number  1
loop_
_symmetry_equiv_pos_site_id
_symmetry_equiv_pos_as_xyz
  1  x,y,z
loop_
 _atom_site_label
 _atom_site_occupancy
 _atom_site_fract_x
 _atom_site_fract_y
 _atom_site_fract_z
 _atom_site_thermal_displace_type
 _atom_site_B_iso_or_equiv
 _atom_site_type_symbol
Ca1 1.0000000000 0.3957012967 0.3957012967 0.1667060510  Biso 1.0 Ca
Ca2 1.0000000000 0.6042929687 0.0000000000 0.8333305084  Biso 1.0 Ca
Ca3 1.0000000000 0.0000000000 0.6042812337 0.5000177543  Biso 1.0 Ca
Ir4 1.0000000000 0.4878708154 0.4878708154 0.6666745298  Biso 1.0 Ir
Ir5 1.0000000000 0.5121206081 0.0000000000 0.3333588237  Biso 1.0 Ir
Ir6 1.0000000000 0.0000000000 0.5121267466 0.0000000000  Biso 1.0 Ir
Ir7 1.0000000000 0.8646831062 0.8646831062 0.1666764350  Biso 1.0 Ir
Ir8 1.0000000000 0.1353155765 0.0000000000 0.8333571014  Biso 1.0 Ir
Ir9 1.0000000000 0.0000000000 0.1353163009 0.5000168198  Biso 1.0 Ir
P10 1.0000000000 0.6606728107 0.7785551426 0.4566329024  Biso 1.0 P
P11 1.0000000000 0.2214466983 0.8821143867 0.1233185205  Biso 1.0 P
P12 1.0000000000 0.1178905269 0.3393320647 0.7899839274  Biso 1.0 P
P13 1.0000000000 0.3393321269 0.1178826791 0.5434036389  Biso 1.0 P
P14 1.0000000000 0.7785501580 0.6606656676 0.8767179937  Biso 1.0 P
P15 1.0000000000 0.8821120038 0.2214452159 0.2100530429  Biso 1.0 P
