# AFLOW.org Repositories
# Ca1In1Pt1   [ORC,ORC,oP12] (STD_PRIM doi
data_Ca1In1Pt1
_pd_phase_name Ca1In1Pt1
_cell_length_a  4.3747618012
_cell_length_b  7.3453397926
_cell_length_c  8.4638916325
_cell_angle_alpha  90.0000000000
_cell_angle_beta  90.0000000000
_cell_angle_gamma  90.0000000000
_symmetry_space_group_name_H-M  'P1'
_symmetry_Int_Tables_Number  1
loop_
_symmetry_equiv_pos_site_id
_symmetry_equiv_pos_as_xyz
  1  x,y,z
loop_
 _atom_site_label
 _atom_site_occupancy
 _atom_site_fract_x
 _atom_site_fract_y
 _atom_site_fract_z
 _atom_site_thermal_displace_type
 _atom_site_B_iso_or_equiv
 _atom_site_type_symbol
Ca1 1.0000000000 0.2500000000 0.0301793038 0.3223733548  Biso 1.0 Ca
Ca2 1.0000000000 0.7500000000 0.4698206962 0.8223733548  Biso 1.0 Ca
Ca3 1.0000000000 0.7500000000 0.9698206962 0.6776266452  Biso 1.0 Ca
Ca4 1.0000000000 0.2500000000 0.5301793038 0.1776266452  Biso 1.0 Ca
In5 1.0000000000 0.2500000000 0.1486215771 0.9347514923  Biso 1.0 In
In6 1.0000000000 0.7500000000 0.3513784229 0.4347514923  Biso 1.0 In
In7 1.0000000000 0.7500000000 0.8513784229 0.0652485077  Biso 1.0 In
In8 1.0000000000 0.2500000000 0.6486215771 0.5652485077  Biso 1.0 In
Pt9 1.0000000000 0.2500000000 0.2685657403 0.6236161191  Biso 1.0 Pt
Pt10 1.0000000000 0.7500000000 0.2314342597 0.1236161191  Biso 1.0 Pt
Pt11 1.0000000000 0.7500000000 0.7314342597 0.3763838809  Biso 1.0 Pt
Pt12 1.0000000000 0.2500000000 0.7685657403 0.8763838809  Biso 1.0 Pt
