# AFLOW.org Repositories
# Ca1In1Rh1   [ORC,ORC,oP12] (STD_PRIM doi
data_Ca1In1Rh1
_pd_phase_name Ca1In1Rh1
_cell_length_a  4.3297218684
_cell_length_b  7.2798545127
_cell_length_c  8.3448345463
_cell_angle_alpha  90.0000000000
_cell_angle_beta  90.0000000000
_cell_angle_gamma  90.0000000000
_symmetry_space_group_name_H-M  'P1'
_symmetry_Int_Tables_Number  1
loop_
_symmetry_equiv_pos_site_id
_symmetry_equiv_pos_as_xyz
  1  x,y,z
loop_
 _atom_site_label
 _atom_site_occupancy
 _atom_site_fract_x
 _atom_site_fract_y
 _atom_site_fract_z
 _atom_site_thermal_displace_type
 _atom_site_B_iso_or_equiv
 _atom_site_type_symbol
Ca1 1.0000000000 0.2500000000 0.0248060074 0.3234086836  Biso 1.0 Ca
Ca2 1.0000000000 0.7500000000 0.4751939926 0.8234086836  Biso 1.0 Ca
Ca3 1.0000000000 0.7500000000 0.9751939926 0.6765913164  Biso 1.0 Ca
Ca4 1.0000000000 0.2500000000 0.5248060074 0.1765913164  Biso 1.0 Ca
In5 1.0000000000 0.2500000000 0.1503146969 0.9339131087  Biso 1.0 In
In6 1.0000000000 0.7500000000 0.3496853031 0.4339131087  Biso 1.0 In
In7 1.0000000000 0.7500000000 0.8496853031 0.0660868913  Biso 1.0 In
In8 1.0000000000 0.2500000000 0.6503146969 0.5660868913  Biso 1.0 In
Rh9 1.0000000000 0.2500000000 0.2761954922 0.6242918979  Biso 1.0 Rh
Rh10 1.0000000000 0.7500000000 0.2238045078 0.1242918979  Biso 1.0 Rh
Rh11 1.0000000000 0.7500000000 0.7238045078 0.3757081021  Biso 1.0 Rh
Rh12 1.0000000000 0.2500000000 0.7761954922 0.8757081021  Biso 1.0 Rh
