# AFLOW.org Repositories
# Ca1Ir1Sn2   [ORCC,ORCC,oS16] (STD_PRIM d
data_Ca1Ir1Sn2
_pd_phase_name Ca1Ir1Sn2
_cell_length_a  5.8921365946
_cell_length_b  5.8921365946
_cell_length_c  7.7772001744
_cell_angle_alpha  90.0000000000
_cell_angle_beta  90.0000000000
_cell_angle_gamma  136.7675998376
_symmetry_space_group_name_H-M  'P1'
_symmetry_Int_Tables_Number  1
loop_
_symmetry_equiv_pos_site_id
_symmetry_equiv_pos_as_xyz
  1  x,y,z
loop_
 _atom_site_label
 _atom_site_occupancy
 _atom_site_fract_x
 _atom_site_fract_y
 _atom_site_fract_z
 _atom_site_thermal_displace_type
 _atom_site_B_iso_or_equiv
 _atom_site_type_symbol
Ca1 1.0000000000 0.9323802805 0.0676197195 0.7500000000  Biso 1.0 Ca
Ca2 1.0000000000 0.0676197195 0.9323802805 0.2500000000  Biso 1.0 Ca
Ir3 1.0000000000 0.2117274883 0.7882725117 0.7500000000  Biso 1.0 Ir
Ir4 1.0000000000 0.7882725117 0.2117274883 0.2500000000  Biso 1.0 Ir
Sn5 1.0000000000 0.6440680879 0.3559319121 0.9543853187  Biso 1.0 Sn
Sn6 1.0000000000 0.3559319121 0.6440680879 0.4543853187  Biso 1.0 Sn
Sn7 1.0000000000 0.6440680879 0.3559319121 0.5456146813  Biso 1.0 Sn
Sn8 1.0000000000 0.3559319121 0.6440680879 0.0456146813  Biso 1.0 Sn
