# AFLOW.org Repositories
# Ca1In4Rh1   [ORC,ORC,oP12] (STD_PRIM doi
data_Ca1In4Rh1
_pd_phase_name Ca1In4Rh1
_cell_length_a  4.2646516231
_cell_length_b  7.5135476429
_cell_length_c  8.7510105555
_cell_angle_alpha  90.0000000000
_cell_angle_beta  90.0000000000
_cell_angle_gamma  90.0000000000
_symmetry_space_group_name_H-M  'P1'
_symmetry_Int_Tables_Number  1
loop_
_symmetry_equiv_pos_site_id
_symmetry_equiv_pos_as_xyz
  1  x,y,z
loop_
 _atom_site_label
 _atom_site_occupancy
 _atom_site_fract_x
 _atom_site_fract_y
 _atom_site_fract_z
 _atom_site_thermal_displace_type
 _atom_site_B_iso_or_equiv
 _atom_site_type_symbol
Ca1 1.0000000000 0.0000000000 0.5995413241 0.2500000000  Biso 1.0 Ca
Ca2 1.0000000000 0.0000000000 0.4004586759 0.7500000000  Biso 1.0 Ca
In3 1.0000000000 0.0000000000 0.0000000000 0.0000000000  Biso 1.0 In
In4 1.0000000000 0.0000000000 0.0000000000 0.5000000000  Biso 1.0 In
In5 1.0000000000 0.5000000000 0.9340253171 0.2500000000  Biso 1.0 In
In6 1.0000000000 0.5000000000 0.0659746829 0.7500000000  Biso 1.0 In
In7 1.0000000000 0.5000000000 0.3134975681 0.0642559898  Biso 1.0 In
In8 1.0000000000 0.5000000000 0.3134975681 0.4357440102  Biso 1.0 In
In9 1.0000000000 0.5000000000 0.6865024319 0.9357440102  Biso 1.0 In
In10 1.0000000000 0.5000000000 0.6865024319 0.5642559898  Biso 1.0 In
Rh11 1.0000000000 0.0000000000 0.1933338424 0.2500000000  Biso 1.0 Rh
Rh12 1.0000000000 0.0000000000 0.8066661576 0.7500000000  Biso 1.0 Rh
