# AFLOW.org Repositories
# Ca1Mg1Si1   [ORC,ORC,oP12] (STD_PRIM doi
data_Ca1Mg1Si1
_pd_phase_name Ca1Mg1Si1
_cell_length_a  4.4286020848
_cell_length_b  7.4698980231
_cell_length_c  8.3112597404
_cell_angle_alpha  90.0000000000
_cell_angle_beta  90.0000000000
_cell_angle_gamma  90.0000000000
_symmetry_space_group_name_H-M  'P1'
_symmetry_Int_Tables_Number  1
loop_
_symmetry_equiv_pos_site_id
_symmetry_equiv_pos_as_xyz
  1  x,y,z
loop_
 _atom_site_label
 _atom_site_occupancy
 _atom_site_fract_x
 _atom_site_fract_y
 _atom_site_fract_z
 _atom_site_thermal_displace_type
 _atom_site_B_iso_or_equiv
 _atom_site_type_symbol
Ca1 1.0000000000 0.2500000000 0.5194889728 0.3202447074  Biso 1.0 Ca
Ca2 1.0000000000 0.7500000000 0.9805110272 0.8202447074  Biso 1.0 Ca
Ca3 1.0000000000 0.7500000000 0.4805110272 0.6797552926  Biso 1.0 Ca
Ca4 1.0000000000 0.2500000000 0.0194889728 0.1797552926  Biso 1.0 Ca
Mg5 1.0000000000 0.2500000000 0.6433031095 0.9369921072  Biso 1.0 Mg
Mg6 1.0000000000 0.7500000000 0.8566968905 0.4369921072  Biso 1.0 Mg
Mg7 1.0000000000 0.7500000000 0.3566968905 0.0630078928  Biso 1.0 Mg
Mg8 1.0000000000 0.2500000000 0.1433031095 0.5630078928  Biso 1.0 Mg
Si9 1.0000000000 0.2500000000 0.2699378328 0.8844446296  Biso 1.0 Si
Si10 1.0000000000 0.7500000000 0.2300621672 0.3844446296  Biso 1.0 Si
Si11 1.0000000000 0.7500000000 0.7300621672 0.1155553704  Biso 1.0 Si
Si12 1.0000000000 0.2500000000 0.7699378328 0.6155553704  Biso 1.0 Si
