# AFLOW.org Repositories
# Ca1Mn7O12   [RHL,RHL2,hR20] (STD_PRIM do
data_Ca1Mn7O12
_pd_phase_name Ca1Mn7O12
_cell_length_a  6.5007205045
_cell_length_b  6.5007205045
_cell_length_c  6.5007205045
_cell_angle_alpha  109.4712206345
_cell_angle_beta  109.4712206345
_cell_angle_gamma  109.4712206345
_symmetry_space_group_name_H-M  'P1'
_symmetry_Int_Tables_Number  1
loop_
_symmetry_equiv_pos_site_id
_symmetry_equiv_pos_as_xyz
  1  x,y,z
loop_
 _atom_site_label
 _atom_site_occupancy
 _atom_site_fract_x
 _atom_site_fract_y
 _atom_site_fract_z
 _atom_site_thermal_displace_type
 _atom_site_B_iso_or_equiv
 _atom_site_type_symbol
Ca1 1.0000000000 0.0000000000 0.0000000000 0.0000000000  Biso 1.0 Ca
Mn2 1.0000000000 0.5000000000 0.0000000000 0.5000000000  Biso 1.0 Mn
Mn3 1.0000000000 0.5000000000 0.5000000000 0.0000000000  Biso 1.0 Mn
Mn4 1.0000000000 0.0000000000 0.5000000000 0.5000000000  Biso 1.0 Mn
Mn5 1.0000000000 0.0000000000 0.0000000000 0.5000000000  Biso 1.0 Mn
Mn6 1.0000000000 0.0000000000 0.5000000000 0.0000000000  Biso 1.0 Mn
Mn7 1.0000000000 0.5000000000 0.5000000000 0.5000000000  Biso 1.0 Mn
Mn8 1.0000000000 0.5000000000 0.0000000000 0.0000000000  Biso 1.0 Mn
O9 1.0000000000 0.8697392935 0.1790913240 0.6892625910  Biso 1.0 O
O10 1.0000000000 0.6906479695 0.5101712670 0.8209086760  Biso 1.0 O
O11 1.0000000000 0.1804767026 0.3107374090 0.4898287330  Biso 1.0 O
O12 1.0000000000 0.1302607065 0.8209086760 0.3107374090  Biso 1.0 O
O13 1.0000000000 0.3093520305 0.4898287330 0.1790913240  Biso 1.0 O
O14 1.0000000000 0.8195232974 0.6892625910 0.5101712670  Biso 1.0 O
O15 1.0000000000 0.4845325856 0.1766957697 0.3069619345  Biso 1.0 O
O16 1.0000000000 0.3078368159 0.1302661648 0.8233042303  Biso 1.0 O
O17 1.0000000000 0.1775706511 0.6930380655 0.8697338352  Biso 1.0 O
O18 1.0000000000 0.5154674144 0.8233042303 0.6930380655  Biso 1.0 O
O19 1.0000000000 0.6921631841 0.8697338352 0.1766957697  Biso 1.0 O
O20 1.0000000000 0.8224293489 0.3069619345 0.1302661648  Biso 1.0 O
