# AFLOW.org Repositories
# Ca1Mn1O3   [HEX,HEX,hP20] (STD_PRIM doi:
data_Ca1Mn1O3
_pd_phase_name Ca1Mn1O3
_cell_length_a  5.3884101483
_cell_length_b  5.3884101483
_cell_length_c  9.2076392137
_cell_angle_alpha  90.0000000000
_cell_angle_beta  90.0000000000
_cell_angle_gamma  120.0000000000
_symmetry_space_group_name_H-M  'P1'
_symmetry_Int_Tables_Number  1
loop_
_symmetry_equiv_pos_site_id
_symmetry_equiv_pos_as_xyz
  1  x,y,z
loop_
 _atom_site_label
 _atom_site_occupancy
 _atom_site_fract_x
 _atom_site_fract_y
 _atom_site_fract_z
 _atom_site_thermal_displace_type
 _atom_site_B_iso_or_equiv
 _atom_site_type_symbol
Ca1 1.0000000000 0.0000000000 0.0000000000 0.0000000000  Biso 1.0 Ca
Ca2 1.0000000000 0.0000000000 0.0000000000 0.5000000000  Biso 1.0 Ca
Ca3 1.0000000000 0.3333756505 0.6666878253 0.2500000000  Biso 1.0 Ca
Ca4 1.0000000000 0.6666243495 0.3333121747 0.7500000000  Biso 1.0 Ca
Mn5 1.0000000000 0.3333342130 0.6666671065 0.6138477646  Biso 1.0 Mn
Mn6 1.0000000000 0.6666657870 0.3333328935 0.1138477646  Biso 1.0 Mn
Mn7 1.0000000000 0.6666657870 0.3333328935 0.3861522354  Biso 1.0 Mn
Mn8 1.0000000000 0.3333342130 0.6666671065 0.8861522354  Biso 1.0 Mn
O9 1.0000000000 0.5000000000 0.5000000000 0.0000000000  Biso 1.0 O
O10 1.0000000000 0.5000000000 0.0000000000 0.0000000000  Biso 1.0 O
O11 1.0000000000 0.0000000000 0.5000000000 0.0000000000  Biso 1.0 O
O12 1.0000000000 0.5000000000 0.5000000000 0.5000000000  Biso 1.0 O
O13 1.0000000000 0.5000000000 0.0000000000 0.5000000000  Biso 1.0 O
O14 1.0000000000 0.0000000000 0.5000000000 0.5000000000  Biso 1.0 O
O15 1.0000000000 0.8236611058 0.1763214186 0.2500000000  Biso 1.0 O
O16 1.0000000000 0.8236611058 0.6473396872 0.2500000000  Biso 1.0 O
O17 1.0000000000 0.3526471286 0.1763235643 0.2500000000  Biso 1.0 O
O18 1.0000000000 0.1763388942 0.8236785814 0.7500000000  Biso 1.0 O
O19 1.0000000000 0.1763388942 0.3526603128 0.7500000000  Biso 1.0 O
O20 1.0000000000 0.6473528714 0.8236764357 0.7500000000  Biso 1.0 O
