# AFLOW.org Repositories
# Ca1N2O6   [CUB,CUB,cP36] (STD_PRIM doi:1
data_Ca1N2O6
_pd_phase_name Ca1N2O6
_cell_length_a  7.7361137734
_cell_length_b  7.7361137734
_cell_length_c  7.7361137734
_cell_angle_alpha  90.0000000000
_cell_angle_beta  90.0000000000
_cell_angle_gamma  90.0000000000
_symmetry_space_group_name_H-M  'P1'
_symmetry_Int_Tables_Number  1
loop_
_symmetry_equiv_pos_site_id
_symmetry_equiv_pos_as_xyz
  1  x,y,z
loop_
 _atom_site_label
 _atom_site_occupancy
 _atom_site_fract_x
 _atom_site_fract_y
 _atom_site_fract_z
 _atom_site_thermal_displace_type
 _atom_site_B_iso_or_equiv
 _atom_site_type_symbol
Ca1 1.0000000000 0.0000000000 0.0000000000 0.0000000000  Biso 1.0 Ca
Ca2 1.0000000000 0.5000000000 0.0000000000 0.5000000000  Biso 1.0 Ca
Ca3 1.0000000000 0.0000000000 0.5000000000 0.5000000000  Biso 1.0 Ca
Ca4 1.0000000000 0.5000000000 0.5000000000 0.0000000000  Biso 1.0 Ca
N5 1.0000000000 0.6618544882 0.6618544882 0.3381455118  Biso 1.0 N
N6 1.0000000000 0.8381455118 0.3381455118 0.8381455118  Biso 1.0 N
N7 1.0000000000 0.3381455118 0.1618544882 0.1618544882  Biso 1.0 N
N8 1.0000000000 0.1618544882 0.8381455118 0.6618544882  Biso 1.0 N
N9 1.0000000000 0.3381455118 0.3381455118 0.6618544882  Biso 1.0 N
N10 1.0000000000 0.1618544882 0.6618544882 0.1618544882  Biso 1.0 N
N11 1.0000000000 0.6618544882 0.8381455118 0.8381455118  Biso 1.0 N
N12 1.0000000000 0.8381455118 0.1618544882 0.3381455118  Biso 1.0 N
O13 1.0000000000 0.7477271088 0.7078066690 0.4695362160  Biso 1.0 O
O14 1.0000000000 0.7522728912 0.2921933310 0.9695362160  Biso 1.0 O
O15 1.0000000000 0.2522728912 0.2078066690 0.0304637840  Biso 1.0 O
O16 1.0000000000 0.2477271088 0.7921933310 0.5304637840  Biso 1.0 O
O17 1.0000000000 0.5304637840 0.7477271088 0.2921933310  Biso 1.0 O
O18 1.0000000000 0.0304637840 0.7522728912 0.7078066690  Biso 1.0 O
O19 1.0000000000 0.9695362160 0.2522728912 0.7921933310  Biso 1.0 O
O20 1.0000000000 0.4695362160 0.2477271088 0.2078066690  Biso 1.0 O
O21 1.0000000000 0.7078066690 0.5304637840 0.2522728912  Biso 1.0 O
O22 1.0000000000 0.2921933310 0.0304637840 0.2477271088  Biso 1.0 O
O23 1.0000000000 0.2078066690 0.9695362160 0.7477271088  Biso 1.0 O
O24 1.0000000000 0.7921933310 0.4695362160 0.7522728912  Biso 1.0 O
O25 1.0000000000 0.2522728912 0.2921933310 0.5304637840  Biso 1.0 O
O26 1.0000000000 0.2477271088 0.7078066690 0.0304637840  Biso 1.0 O
O27 1.0000000000 0.7477271088 0.7921933310 0.9695362160  Biso 1.0 O
O28 1.0000000000 0.7522728912 0.2078066690 0.4695362160  Biso 1.0 O
O29 1.0000000000 0.4695362160 0.2522728912 0.7078066690  Biso 1.0 O
O30 1.0000000000 0.9695362160 0.2477271088 0.2921933310  Biso 1.0 O
O31 1.0000000000 0.0304637840 0.7477271088 0.2078066690  Biso 1.0 O
O32 1.0000000000 0.5304637840 0.7522728912 0.7921933310  Biso 1.0 O
O33 1.0000000000 0.2921933310 0.4695362160 0.7477271088  Biso 1.0 O
O34 1.0000000000 0.7078066690 0.9695362160 0.7522728912  Biso 1.0 O
O35 1.0000000000 0.7921933310 0.0304637840 0.2522728912  Biso 1.0 O
O36 1.0000000000 0.2078066690 0.5304637840 0.2477271088  Biso 1.0 O
