# AFLOW.org Repositories
# Ca1O4S1   [HEX,HEX,hP18] (STD_PRIM doi:1
data_Ca1O4S1
_pd_phase_name Ca1O4S1
_cell_length_a  7.0461281145
_cell_length_b  7.0461281145
_cell_length_c  6.3613969354
_cell_angle_alpha  90.0000000000
_cell_angle_beta  90.0000000000
_cell_angle_gamma  120.0000000000
_symmetry_space_group_name_H-M  'P1'
_symmetry_Int_Tables_Number  1
loop_
_symmetry_equiv_pos_site_id
_symmetry_equiv_pos_as_xyz
  1  x,y,z
loop_
 _atom_site_label
 _atom_site_occupancy
 _atom_site_fract_x
 _atom_site_fract_y
 _atom_site_fract_z
 _atom_site_thermal_displace_type
 _atom_site_B_iso_or_equiv
 _atom_site_type_symbol
Ca1 1.0000000000 0.5000000000 0.5000000000 0.0000000000  Biso 1.0 Ca
Ca2 1.0000000000 0.5000000000 0.0000000000 0.6666666667  Biso 1.0 Ca
Ca3 1.0000000000 0.0000000000 0.5000000000 0.3333333333  Biso 1.0 Ca
O4 1.0000000000 0.6889960029 0.5531212564 0.3590608843  Biso 1.0 O
O5 1.0000000000 0.4468787436 0.1358747464 0.0257275510  Biso 1.0 O
O6 1.0000000000 0.8641252536 0.3110039971 0.6923942176  Biso 1.0 O
O7 1.0000000000 0.3110039971 0.4468787436 0.3590608843  Biso 1.0 O
O8 1.0000000000 0.5531212564 0.8641252536 0.0257275510  Biso 1.0 O
O9 1.0000000000 0.1358747464 0.6889960029 0.6923942176  Biso 1.0 O
O10 1.0000000000 0.3110039971 0.8641252536 0.3076057824  Biso 1.0 O
O11 1.0000000000 0.5531212564 0.6889960029 0.6409391157  Biso 1.0 O
O12 1.0000000000 0.1358747464 0.4468787436 0.9742724490  Biso 1.0 O
O13 1.0000000000 0.6889960029 0.1358747464 0.3076057824  Biso 1.0 O
O14 1.0000000000 0.4468787436 0.3110039971 0.6409391157  Biso 1.0 O
O15 1.0000000000 0.8641252536 0.5531212564 0.9742724490  Biso 1.0 O
S16 1.0000000000 0.5000000000 0.5000000000 0.5000000000  Biso 1.0 S
S17 1.0000000000 0.5000000000 0.0000000000 0.1666666667  Biso 1.0 S
S18 1.0000000000 0.0000000000 0.5000000000 0.8333333333  Biso 1.0 S
