# AFLOW.org Repositories
# Ca1O3Zr1   [ORC,ORC,oP20] (STD_PRIM doi:
data_Ca1O3Zr1
_pd_phase_name Ca1O3Zr1
_cell_length_a  5.6362009530
_cell_length_b  5.8329593699
_cell_length_c  8.1019371943
_cell_angle_alpha  90.0000000000
_cell_angle_beta  90.0000000000
_cell_angle_gamma  90.0000000000
_symmetry_space_group_name_H-M  'P1'
_symmetry_Int_Tables_Number  1
loop_
_symmetry_equiv_pos_site_id
_symmetry_equiv_pos_as_xyz
  1  x,y,z
loop_
 _atom_site_label
 _atom_site_occupancy
 _atom_site_fract_x
 _atom_site_fract_y
 _atom_site_fract_z
 _atom_site_thermal_displace_type
 _atom_site_B_iso_or_equiv
 _atom_site_type_symbol
Ca1 1.0000000000 0.0124009289 0.9489458726 0.7500000000  Biso 1.0 Ca
Ca2 1.0000000000 0.5124009289 0.5510541274 0.2500000000  Biso 1.0 Ca
Ca3 1.0000000000 0.9875990711 0.0510541274 0.2500000000  Biso 1.0 Ca
Ca4 1.0000000000 0.4875990711 0.4489458726 0.7500000000  Biso 1.0 Ca
O5 1.0000000000 0.8917208903 0.5431377427 0.7500000000  Biso 1.0 O
O6 1.0000000000 0.3917208903 0.9568622573 0.2500000000  Biso 1.0 O
O7 1.0000000000 0.1082791097 0.4568622573 0.2500000000  Biso 1.0 O
O8 1.0000000000 0.6082791097 0.0431377427 0.7500000000  Biso 1.0 O
O9 1.0000000000 0.3044755094 0.6981781378 0.9427472275  Biso 1.0 O
O10 1.0000000000 0.8044755094 0.8018218622 0.0572527725  Biso 1.0 O
O11 1.0000000000 0.6955244906 0.3018218622 0.4427472275  Biso 1.0 O
O12 1.0000000000 0.1955244906 0.1981781378 0.5572527725  Biso 1.0 O
O13 1.0000000000 0.6955244906 0.3018218622 0.0572527725  Biso 1.0 O
O14 1.0000000000 0.1955244906 0.1981781378 0.9427472275  Biso 1.0 O
O15 1.0000000000 0.3044755094 0.6981781378 0.5572527725  Biso 1.0 O
O16 1.0000000000 0.8044755094 0.8018218622 0.4427472275  Biso 1.0 O
Zr17 1.0000000000 0.0000000000 0.5000000000 0.0000000000  Biso 1.0 Zr
Zr18 1.0000000000 0.5000000000 0.0000000000 0.0000000000  Biso 1.0 Zr
Zr19 1.0000000000 0.0000000000 0.5000000000 0.5000000000  Biso 1.0 Zr
Zr20 1.0000000000 0.5000000000 0.0000000000 0.5000000000  Biso 1.0 Zr
