# AFLOW.org Repositories
# Ca1O3Si1   [ORC,ORC,oP20] (STD_PRIM doi:
data_Ca1O3Si1
_pd_phase_name Ca1O3Si1
_cell_length_a  5.1033926967
_cell_length_b  5.1222910859
_cell_length_c  7.1912576027
_cell_angle_alpha  90.0000000000
_cell_angle_beta  90.0000000000
_cell_angle_gamma  90.0000000000
_symmetry_space_group_name_H-M  'P1'
_symmetry_Int_Tables_Number  1
loop_
_symmetry_equiv_pos_site_id
_symmetry_equiv_pos_as_xyz
  1  x,y,z
loop_
 _atom_site_label
 _atom_site_occupancy
 _atom_site_fract_x
 _atom_site_fract_y
 _atom_site_fract_z
 _atom_site_thermal_displace_type
 _atom_site_B_iso_or_equiv
 _atom_site_type_symbol
Ca1 1.0000000000 0.4975690122 0.0012266360 0.2500000000  Biso 1.0 Ca
Ca2 1.0000000000 0.0024320312 0.5012253897 0.7500000000  Biso 1.0 Ca
Ca3 1.0000000000 0.5024309878 0.9987733640 0.7500000000  Biso 1.0 Ca
Ca4 1.0000000000 0.9975679688 0.4987746103 0.2500000000  Biso 1.0 Ca
O5 1.0000000000 0.7463485585 0.2463185992 0.0196946243  Biso 1.0 O
O6 1.0000000000 0.7536513620 0.7463185339 0.9802858596  Biso 1.0 O
O7 1.0000000000 0.2536514415 0.7536814008 0.5196946243  Biso 1.0 O
O8 1.0000000000 0.2463486380 0.2536814661 0.4802858596  Biso 1.0 O
O9 1.0000000000 0.2536514415 0.7536814008 0.9803053757  Biso 1.0 O
O10 1.0000000000 0.2463486380 0.2536814661 0.0197141404  Biso 1.0 O
O11 1.0000000000 0.7463485585 0.2463185992 0.4803053757  Biso 1.0 O
O12 1.0000000000 0.7536513620 0.7463185339 0.5197141404  Biso 1.0 O
O13 1.0000000000 0.0000000000 0.9615931967 0.2500000000  Biso 1.0 O
O14 1.0000000000 0.4995000886 0.4615932609 0.7500000000  Biso 1.0 O
O15 1.0000000000 0.0000000000 0.0384068033 0.7500000000  Biso 1.0 O
O16 1.0000000000 0.5004999114 0.5384067391 0.2500000000  Biso 1.0 O
Si17 1.0000000000 0.0000000000 0.0000000000 0.0000000000  Biso 1.0 Si
Si18 1.0000000000 0.5000000000 0.5000000000 0.0000000000  Biso 1.0 Si
Si19 1.0000000000 0.0000000000 0.0000000000 0.5000000000  Biso 1.0 Si
Si20 1.0000000000 0.5000000000 0.5000000000 0.5000000000  Biso 1.0 Si
