# AFLOW.org Repositories
# Ca1O3Tc1   [ORC,ORC,oP20] (STD_PRIM doi:
data_Ca1O3Tc1
_pd_phase_name Ca1O3Tc1
_cell_length_a  5.4834604192
_cell_length_b  5.6666093177
_cell_length_c  7.8475334223
_cell_angle_alpha  90.0000000000
_cell_angle_beta  90.0000000000
_cell_angle_gamma  90.0000000000
_symmetry_space_group_name_H-M  'P1'
_symmetry_Int_Tables_Number  1
loop_
_symmetry_equiv_pos_site_id
_symmetry_equiv_pos_as_xyz
  1  x,y,z
loop_
 _atom_site_label
 _atom_site_occupancy
 _atom_site_fract_x
 _atom_site_fract_y
 _atom_site_fract_z
 _atom_site_thermal_displace_type
 _atom_site_B_iso_or_equiv
 _atom_site_type_symbol
Ca1 1.0000000000 0.4860048136 0.0553575105 0.7500000000  Biso 1.0 Ca
Ca2 1.0000000000 0.9860048136 0.4446424895 0.2500000000  Biso 1.0 Ca
Ca3 1.0000000000 0.5139951864 0.9446424895 0.2500000000  Biso 1.0 Ca
Ca4 1.0000000000 0.0139951864 0.5553575105 0.7500000000  Biso 1.0 Ca
O5 1.0000000000 0.6016556255 0.4637278102 0.7500000000  Biso 1.0 O
O6 1.0000000000 0.1016556255 0.0362721898 0.2500000000  Biso 1.0 O
O7 1.0000000000 0.3983443745 0.5362721898 0.2500000000  Biso 1.0 O
O8 1.0000000000 0.8983443745 0.9637278102 0.7500000000  Biso 1.0 O
O9 1.0000000000 0.6975848270 0.2010962365 0.0529296761  Biso 1.0 O
O10 1.0000000000 0.1975848270 0.2989037635 0.9470703239  Biso 1.0 O
O11 1.0000000000 0.3024151730 0.7989037635 0.5529296761  Biso 1.0 O
O12 1.0000000000 0.8024151730 0.7010962365 0.4470703239  Biso 1.0 O
O13 1.0000000000 0.3024151730 0.7989037635 0.9470703239  Biso 1.0 O
O14 1.0000000000 0.8024151730 0.7010962365 0.0529296761  Biso 1.0 O
O15 1.0000000000 0.6975848270 0.2010962365 0.4470703239  Biso 1.0 O
O16 1.0000000000 0.1975848270 0.2989037635 0.5529296761  Biso 1.0 O
Tc17 1.0000000000 0.0000000000 0.0000000000 0.0000000000  Biso 1.0 Tc
Tc18 1.0000000000 0.5000000000 0.5000000000 0.0000000000  Biso 1.0 Tc
Tc19 1.0000000000 0.0000000000 0.0000000000 0.5000000000  Biso 1.0 Tc
Tc20 1.0000000000 0.5000000000 0.5000000000 0.5000000000  Biso 1.0 Tc
