# AFLOW.org Repositories
# Ca1Pt2   [HEX,HEX,hP12] (STD_PRIM doi:10
data_Ca1Pt2
_pd_phase_name Ca1Pt2
_cell_length_a  5.4139217083
_cell_length_b  5.4139217083
_cell_length_c  8.9574290805
_cell_angle_alpha  90.0000000000
_cell_angle_beta  90.0000000000
_cell_angle_gamma  120.0000000000
_symmetry_space_group_name_H-M  'P1'
_symmetry_Int_Tables_Number  1
loop_
_symmetry_equiv_pos_site_id
_symmetry_equiv_pos_as_xyz
  1  x,y,z
loop_
 _atom_site_label
 _atom_site_occupancy
 _atom_site_fract_x
 _atom_site_fract_y
 _atom_site_fract_z
 _atom_site_thermal_displace_type
 _atom_site_B_iso_or_equiv
 _atom_site_type_symbol
Ca1 1.0000000000 0.3333637672 0.6666818836 0.0647368825  Biso 1.0 Ca
Ca2 1.0000000000 0.6666362328 0.3333181164 0.5647368825  Biso 1.0 Ca
Ca3 1.0000000000 0.6666362328 0.3333181164 0.9352631175  Biso 1.0 Ca
Ca4 1.0000000000 0.3333637672 0.6666818836 0.4352631175  Biso 1.0 Ca
Pt5 1.0000000000 0.0000000000 0.0000000000 0.0000000000  Biso 1.0 Pt
Pt6 1.0000000000 0.0000000000 0.0000000000 0.5000000000  Biso 1.0 Pt
Pt7 1.0000000000 0.8311259329 0.1688836177 0.2500000000  Biso 1.0 Pt
Pt8 1.0000000000 0.8311259329 0.6622423152 0.2500000000  Biso 1.0 Pt
Pt9 1.0000000000 0.3377589101 0.1688794551 0.2500000000  Biso 1.0 Pt
Pt10 1.0000000000 0.1688740671 0.8311163823 0.7500000000  Biso 1.0 Pt
Pt11 1.0000000000 0.1688740671 0.3377576848 0.7500000000  Biso 1.0 Pt
Pt12 1.0000000000 0.6622410899 0.8311205449 0.7500000000  Biso 1.0 Pt
