# AFLOW.org Repositories
# Ca1Pb1Sr1   [ORC,ORC,oP12] (STD_PRIM doi
data_Ca1Pb1Sr1
_pd_phase_name Ca1Pb1Sr1
_cell_length_a  5.2274552903
_cell_length_b  8.5342215964
_cell_length_c  9.7870177074
_cell_angle_alpha  90.0000000000
_cell_angle_beta  90.0000000000
_cell_angle_gamma  90.0000000000
_symmetry_space_group_name_H-M  'P1'
_symmetry_Int_Tables_Number  1
loop_
_symmetry_equiv_pos_site_id
_symmetry_equiv_pos_as_xyz
  1  x,y,z
loop_
 _atom_site_label
 _atom_site_occupancy
 _atom_site_fract_x
 _atom_site_fract_y
 _atom_site_fract_z
 _atom_site_thermal_displace_type
 _atom_site_B_iso_or_equiv
 _atom_site_type_symbol
Ca1 1.0000000000 0.2500000000 0.1487070731 0.9307672970  Biso 1.0 Ca
Ca2 1.0000000000 0.7500000000 0.3512929269 0.4307672970  Biso 1.0 Ca
Ca3 1.0000000000 0.7500000000 0.8512929269 0.0692327030  Biso 1.0 Ca
Ca4 1.0000000000 0.2500000000 0.6487070731 0.5692327030  Biso 1.0 Ca
Pb5 1.0000000000 0.2500000000 0.2626420950 0.6112339663  Biso 1.0 Pb
Pb6 1.0000000000 0.7500000000 0.2373579050 0.1112339663  Biso 1.0 Pb
Pb7 1.0000000000 0.7500000000 0.7373579050 0.3887660337  Biso 1.0 Pb
Pb8 1.0000000000 0.2500000000 0.7626420950 0.8887660337  Biso 1.0 Pb
Sr9 1.0000000000 0.2500000000 0.0218349873 0.3192141859  Biso 1.0 Sr
Sr10 1.0000000000 0.7500000000 0.4781650127 0.8192141859  Biso 1.0 Sr
Sr11 1.0000000000 0.7500000000 0.9781650127 0.6807858141  Biso 1.0 Sr
Sr12 1.0000000000 0.2500000000 0.5218349873 0.1807858141  Biso 1.0 Sr
