# AFLOW.org Repositories
# Ca1Pt1Si1   [CUB,CUB,cP12] (STD_PRIM doi
data_Ca1Pt1Si1
_pd_phase_name Ca1Pt1Si1
_cell_length_a  6.3593750269
_cell_length_b  6.3593750269
_cell_length_c  6.3593750269
_cell_angle_alpha  90.0000000000
_cell_angle_beta  90.0000000000
_cell_angle_gamma  90.0000000000
_symmetry_space_group_name_H-M  'P1'
_symmetry_Int_Tables_Number  1
loop_
_symmetry_equiv_pos_site_id
_symmetry_equiv_pos_as_xyz
  1  x,y,z
loop_
 _atom_site_label
 _atom_site_occupancy
 _atom_site_fract_x
 _atom_site_fract_y
 _atom_site_fract_z
 _atom_site_thermal_displace_type
 _atom_site_B_iso_or_equiv
 _atom_site_type_symbol
Ca1 1.0000000000 0.8727163263 0.8727163263 0.1272836737  Biso 1.0 Ca
Ca2 1.0000000000 0.6272836737 0.1272836737 0.6272836737  Biso 1.0 Ca
Ca3 1.0000000000 0.1272836737 0.3727163263 0.3727163263  Biso 1.0 Ca
Ca4 1.0000000000 0.3727163263 0.6272836737 0.8727163263  Biso 1.0 Ca
Pt5 1.0000000000 0.5805978299 0.5805978299 0.4194021701  Biso 1.0 Pt
Pt6 1.0000000000 0.9194021701 0.4194021701 0.9194021701  Biso 1.0 Pt
Pt7 1.0000000000 0.4194021701 0.0805978299 0.0805978299  Biso 1.0 Pt
Pt8 1.0000000000 0.0805978299 0.9194021701 0.5805978299  Biso 1.0 Pt
Si9 1.0000000000 0.1681916567 0.1681916567 0.8318083433  Biso 1.0 Si
Si10 1.0000000000 0.3318083433 0.8318083433 0.3318083433  Biso 1.0 Si
Si11 1.0000000000 0.8318083433 0.6681916567 0.6681916567  Biso 1.0 Si
Si12 1.0000000000 0.6681916567 0.3318083433 0.1681916567  Biso 1.0 Si
