# AFLOW.org Repositories
# Ca1Rh2Si2   [BCT,BCT2,tI10] (STD_PRIM do
data_Ca1Rh2Si2
_pd_phase_name Ca1Rh2Si2
_cell_length_a  5.7644637489
_cell_length_b  5.7644637489
_cell_length_c  5.7644637489
_cell_angle_alpha  138.3670903434
_cell_angle_beta  138.3670903434
_cell_angle_gamma  60.3412454048
_symmetry_space_group_name_H-M  'P1'
_symmetry_Int_Tables_Number  1
loop_
_symmetry_equiv_pos_site_id
_symmetry_equiv_pos_as_xyz
  1  x,y,z
loop_
 _atom_site_label
 _atom_site_occupancy
 _atom_site_fract_x
 _atom_site_fract_y
 _atom_site_fract_z
 _atom_site_thermal_displace_type
 _atom_site_B_iso_or_equiv
 _atom_site_type_symbol
Ca1 1.0000000000 0.0000000000 0.0000000000 0.0000000000  Biso 1.0 Ca
Rh2 1.0000000000 0.2500000000 0.7500000000 0.5000000000  Biso 1.0 Rh
Rh3 1.0000000000 0.7500000000 0.2500000000 0.5000000000  Biso 1.0 Rh
Si4 1.0000000000 0.6270962696 0.6270962696 0.0000000000  Biso 1.0 Si
Si5 1.0000000000 0.3729037304 0.3729037304 0.0000000000  Biso 1.0 Si
