# AFLOW.org Repositories
# Ca1Zn1   [ORCC,ORCC,oS8] (STD_PRIM doi:1
data_Ca1Zn1
_pd_phase_name Ca1Zn1
_cell_length_a  6.0606925464
_cell_length_b  6.0606925464
_cell_length_c  4.4141338133
_cell_angle_alpha  90.0000000000
_cell_angle_beta  90.0000000000
_cell_angle_gamma  138.6711721060
_symmetry_space_group_name_H-M  'P1'
_symmetry_Int_Tables_Number  1
loop_
_symmetry_equiv_pos_site_id
_symmetry_equiv_pos_as_xyz
  1  x,y,z
loop_
 _atom_site_label
 _atom_site_occupancy
 _atom_site_fract_x
 _atom_site_fract_y
 _atom_site_fract_z
 _atom_site_thermal_displace_type
 _atom_site_B_iso_or_equiv
 _atom_site_type_symbol
Ca1 1.0000000000 0.8541954701 0.1458045299 0.7500000000  Biso 1.0 Ca
Ca2 1.0000000000 0.1458045299 0.8541954701 0.2500000000  Biso 1.0 Ca
Zn3 1.0000000000 0.5642384836 0.4357615164 0.7500000000  Biso 1.0 Zn
Zn4 1.0000000000 0.4357615164 0.5642384836 0.2500000000  Biso 1.0 Zn
