# AFLOW.org Repositories
# Ca2H1N1   [FCC,FCC,cF64] (STD_PRIM doi:1
data_Ca2H1N1
_pd_phase_name Ca2H1N1
_cell_length_a  7.1529785531
_cell_length_b  7.1529785531
_cell_length_c  7.1529785531
_cell_angle_alpha  60.0000000000
_cell_angle_beta  60.0000000000
_cell_angle_gamma  60.0000000000
_symmetry_space_group_name_H-M  'P1'
_symmetry_Int_Tables_Number  1
loop_
_symmetry_equiv_pos_site_id
_symmetry_equiv_pos_as_xyz
  1  x,y,z
loop_
 _atom_site_label
 _atom_site_occupancy
 _atom_site_fract_x
 _atom_site_fract_y
 _atom_site_fract_z
 _atom_site_thermal_displace_type
 _atom_site_B_iso_or_equiv
 _atom_site_type_symbol
Ca1 1.0000000000 0.7380030809 0.7380030809 0.7859907573  Biso 1.0 Ca
Ca2 1.0000000000 0.7380030809 0.7380030809 0.2380030809  Biso 1.0 Ca
Ca3 1.0000000000 0.7380030809 0.2859907573 0.2380030809  Biso 1.0 Ca
Ca4 1.0000000000 0.2859907573 0.7380030809 0.2380030809  Biso 1.0 Ca
Ca5 1.0000000000 0.2619969191 0.2619969191 0.7619969191  Biso 1.0 Ca
Ca6 1.0000000000 0.2619969191 0.2619969191 0.2140092427  Biso 1.0 Ca
Ca7 1.0000000000 0.2619969191 0.7140092427 0.7619969191  Biso 1.0 Ca
Ca8 1.0000000000 0.7140092427 0.2619969191 0.7619969191  Biso 1.0 Ca
H9 1.0000000000 0.0000000000 0.0000000000 0.0000000000  Biso 1.0 H
H10 1.0000000000 0.0000000000 0.0000000000 0.5000000000  Biso 1.0 H
H11 1.0000000000 0.0000000000 0.5000000000 0.5000000000  Biso 1.0 H
H12 1.0000000000 0.5000000000 0.0000000000 0.5000000000  Biso 1.0 H
N13 1.0000000000 0.5000000000 0.5000000000 0.5000000000  Biso 1.0 N
N14 1.0000000000 0.5000000000 0.5000000000 0.0000000000  Biso 1.0 N
N15 1.0000000000 0.5000000000 0.0000000000 0.0000000000  Biso 1.0 N
N16 1.0000000000 0.0000000000 0.5000000000 0.0000000000  Biso 1.0 N
