# AFLOW.org Repositories
# Ca2O4Pb1   [ORC,ORC,oP14] (STD_PRIM doi:
data_Ca2O4Pb1
_pd_phase_name Ca2O4Pb1
_cell_length_a  3.4232266995
_cell_length_b  5.8876148009
_cell_length_c  9.9282555838
_cell_angle_alpha  90.0000000000
_cell_angle_beta  90.0000000000
_cell_angle_gamma  90.0000000000
_symmetry_space_group_name_H-M  'P1'
_symmetry_Int_Tables_Number  1
loop_
_symmetry_equiv_pos_site_id
_symmetry_equiv_pos_as_xyz
  1  x,y,z
loop_
 _atom_site_label
 _atom_site_occupancy
 _atom_site_fract_x
 _atom_site_fract_y
 _atom_site_fract_z
 _atom_site_thermal_displace_type
 _atom_site_B_iso_or_equiv
 _atom_site_type_symbol
Ca1 1.0000000000 0.5000000000 0.0717195792 0.6815425989  Biso 1.0 Ca
Ca2 1.0000000000 0.5000000000 0.9282804208 0.3184574011  Biso 1.0 Ca
Ca3 1.0000000000 0.5000000000 0.4282804208 0.1815425989  Biso 1.0 Ca
Ca4 1.0000000000 0.5000000000 0.5717195792 0.8184574011  Biso 1.0 Ca
O5 1.0000000000 0.5000000000 0.2413746693 0.9523975323  Biso 1.0 O
O6 1.0000000000 0.5000000000 0.7586253307 0.0476024677  Biso 1.0 O
O7 1.0000000000 0.5000000000 0.2586253307 0.4523975323  Biso 1.0 O
O8 1.0000000000 0.5000000000 0.7413746693 0.5476024677  Biso 1.0 O
O9 1.0000000000 0.0000000000 0.3591835310 0.7012592932  Biso 1.0 O
O10 1.0000000000 0.0000000000 0.6408164690 0.2987407068  Biso 1.0 O
O11 1.0000000000 0.0000000000 0.1408164690 0.2012592932  Biso 1.0 O
O12 1.0000000000 0.0000000000 0.8591835310 0.7987407068  Biso 1.0 O
Pb13 1.0000000000 0.0000000000 0.0000000000 0.0000000000  Biso 1.0 Pb
Pb14 1.0000000000 0.0000000000 0.5000000000 0.5000000000  Biso 1.0 Pb
