# AFLOW.org Repositories
# Ca2O4Sn1   [ORC,ORC,oP14] (STD_PRIM doi:
data_Ca2O4Sn1
_pd_phase_name Ca2O4Sn1
_cell_length_a  3.3411527274
_cell_length_b  5.8250188546
_cell_length_c  9.8721652113
_cell_angle_alpha  90.0000000000
_cell_angle_beta  90.0000000000
_cell_angle_gamma  90.0000000000
_symmetry_space_group_name_H-M  'P1'
_symmetry_Int_Tables_Number  1
loop_
_symmetry_equiv_pos_site_id
_symmetry_equiv_pos_as_xyz
  1  x,y,z
loop_
 _atom_site_label
 _atom_site_occupancy
 _atom_site_fract_x
 _atom_site_fract_y
 _atom_site_fract_z
 _atom_site_thermal_displace_type
 _atom_site_B_iso_or_equiv
 _atom_site_type_symbol
Ca1 1.0000000000 0.5000000000 0.0697708704 0.6819168475  Biso 1.0 Ca
Ca2 1.0000000000 0.5000000000 0.9302291296 0.3180831525  Biso 1.0 Ca
Ca3 1.0000000000 0.5000000000 0.4302291296 0.1819168475  Biso 1.0 Ca
Ca4 1.0000000000 0.5000000000 0.5697708704 0.8180831525  Biso 1.0 Ca
O5 1.0000000000 0.5000000000 0.2327043785 0.9517911890  Biso 1.0 O
O6 1.0000000000 0.5000000000 0.7672956215 0.0482088110  Biso 1.0 O
O7 1.0000000000 0.5000000000 0.2672956215 0.4517911890  Biso 1.0 O
O8 1.0000000000 0.5000000000 0.7327043785 0.5482088110  Biso 1.0 O
O9 1.0000000000 0.0000000000 0.3612966568 0.6954227434  Biso 1.0 O
O10 1.0000000000 0.0000000000 0.6387033432 0.3045772566  Biso 1.0 O
O11 1.0000000000 0.0000000000 0.1387033432 0.1954227434  Biso 1.0 O
O12 1.0000000000 0.0000000000 0.8612966568 0.8045772566  Biso 1.0 O
Sn13 1.0000000000 0.0000000000 0.0000000000 0.0000000000  Biso 1.0 Sn
Sn14 1.0000000000 0.0000000000 0.5000000000 0.5000000000  Biso 1.0 Sn
