# AFLOW.org Repositories
# Ca3Cr1N3   [ORCC,ORCC,oS28] (STD_PRIM do
data_Ca3Cr1N3
_pd_phase_name Ca3Cr1N3
_cell_length_a  6.6895750263
_cell_length_b  6.6895750263
_cell_length_c  5.0450004043
_cell_angle_alpha  90.0000000000
_cell_angle_beta  90.0000000000
_cell_angle_gamma  100.6891647092
_symmetry_space_group_name_H-M  'P1'
_symmetry_Int_Tables_Number  1
loop_
_symmetry_equiv_pos_site_id
_symmetry_equiv_pos_as_xyz
  1  x,y,z
loop_
 _atom_site_label
 _atom_site_occupancy
 _atom_site_fract_x
 _atom_site_fract_y
 _atom_site_fract_z
 _atom_site_thermal_displace_type
 _atom_site_B_iso_or_equiv
 _atom_site_type_symbol
Ca1 1.0000000000 0.8932171132 0.1067828868 0.7500000000  Biso 1.0 Ca
Ca2 1.0000000000 0.1067828868 0.8932171132 0.2500000000  Biso 1.0 Ca
Ca3 1.0000000000 0.8341970071 0.6003543249 0.7500000000  Biso 1.0 Ca
Ca4 1.0000000000 0.1658029929 0.3996456751 0.2500000000  Biso 1.0 Ca
Ca5 1.0000000000 0.3996456751 0.1658029929 0.7500000000  Biso 1.0 Ca
Ca6 1.0000000000 0.6003543249 0.8341970071 0.2500000000  Biso 1.0 Ca
Cr7 1.0000000000 0.3060557529 0.6939442471 0.7500000000  Biso 1.0 Cr
Cr8 1.0000000000 0.6939442471 0.3060557529 0.2500000000  Biso 1.0 Cr
N9 1.0000000000 0.1238164139 0.8761835861 0.7500000000  Biso 1.0 N
N10 1.0000000000 0.8761835861 0.1238164139 0.2500000000  Biso 1.0 N
N11 1.0000000000 0.1784803234 0.4340595790 0.7500000000  Biso 1.0 N
N12 1.0000000000 0.8215196766 0.5659404210 0.2500000000  Biso 1.0 N
N13 1.0000000000 0.5659404210 0.8215196766 0.7500000000  Biso 1.0 N
N14 1.0000000000 0.4340595790 0.1784803234 0.2500000000  Biso 1.0 N
