# AFLOW.org Repositories
# Ca3Ga5   [ORCC,ORCC,oS32] (STD_PRIM doi:
data_Ca3Ga5
_pd_phase_name Ca3Ga5
_cell_length_a  5.8406674448
_cell_length_b  5.8406674448
_cell_length_c  15.0108771576
_cell_angle_alpha  90.0000000000
_cell_angle_beta  90.0000000000
_cell_angle_gamma  135.0472314487
_symmetry_space_group_name_H-M  'P1'
_symmetry_Int_Tables_Number  1
loop_
_symmetry_equiv_pos_site_id
_symmetry_equiv_pos_as_xyz
  1  x,y,z
loop_
 _atom_site_label
 _atom_site_occupancy
 _atom_site_fract_x
 _atom_site_fract_y
 _atom_site_fract_z
 _atom_site_thermal_displace_type
 _atom_site_B_iso_or_equiv
 _atom_site_type_symbol
Ca1 1.0000000000 0.8698769782 0.1301230218 0.7500000000  Biso 1.0 Ca
Ca2 1.0000000000 0.1301230218 0.8698769782 0.2500000000  Biso 1.0 Ca
Ca3 1.0000000000 0.4118853377 0.5881146623 0.1103372731  Biso 1.0 Ca
Ca4 1.0000000000 0.5881146623 0.4118853377 0.6103372731  Biso 1.0 Ca
Ca5 1.0000000000 0.4118853377 0.5881146623 0.3896627269  Biso 1.0 Ca
Ca6 1.0000000000 0.5881146623 0.4118853377 0.8896627269  Biso 1.0 Ca
Ga7 1.0000000000 0.1625798947 0.8374201053 0.7500000000  Biso 1.0 Ga
Ga8 1.0000000000 0.8374201053 0.1625798947 0.2500000000  Biso 1.0 Ga
Ga9 1.0000000000 0.7080416990 0.2919583010 0.4004629743  Biso 1.0 Ga
Ga10 1.0000000000 0.2919583010 0.7080416990 0.9004629743  Biso 1.0 Ga
Ga11 1.0000000000 0.7080416990 0.2919583010 0.0995370257  Biso 1.0 Ga
Ga12 1.0000000000 0.2919583010 0.7080416990 0.5995370257  Biso 1.0 Ga
Ga13 1.0000000000 0.8846076632 0.1153923368 0.5340151427  Biso 1.0 Ga
Ga14 1.0000000000 0.1153923368 0.8846076632 0.0340151427  Biso 1.0 Ga
Ga15 1.0000000000 0.8846076632 0.1153923368 0.9659848573  Biso 1.0 Ga
Ga16 1.0000000000 0.1153923368 0.8846076632 0.4659848573  Biso 1.0 Ga
