# AFLOW.org Repositories
# Ca3N2   [BCC,BCC,cI80] (STD_PRIM doi:10.
data_Ca3N2
_pd_phase_name Ca3N2
_cell_length_a  9.9352060652
_cell_length_b  9.9352060652
_cell_length_c  9.9352060652
_cell_angle_alpha  109.4712206345
_cell_angle_beta  109.4712206345
_cell_angle_gamma  109.4712206345
_symmetry_space_group_name_H-M  'P1'
_symmetry_Int_Tables_Number  1
loop_
_symmetry_equiv_pos_site_id
_symmetry_equiv_pos_as_xyz
  1  x,y,z
loop_
 _atom_site_label
 _atom_site_occupancy
 _atom_site_fract_x
 _atom_site_fract_y
 _atom_site_fract_z
 _atom_site_thermal_displace_type
 _atom_site_B_iso_or_equiv
 _atom_site_type_symbol
Ca1 1.0000000000 0.9930480544 0.5368640891 0.7645218560  Biso 1.0 Ca
Ca2 1.0000000000 0.7723422331 0.7285261984 0.7354781440  Biso 1.0 Ca
Ca3 1.0000000000 0.5069519456 0.7714738016 0.0438160347  Biso 1.0 Ca
Ca4 1.0000000000 0.7276577669 0.9631359109 0.4561839653  Biso 1.0 Ca
Ca5 1.0000000000 0.7714738016 0.5438160347 0.0069519456  Biso 1.0 Ca
Ca6 1.0000000000 0.9631359109 0.9561839653 0.2276577669  Biso 1.0 Ca
Ca7 1.0000000000 0.5368640891 0.2645218560 0.4930480544  Biso 1.0 Ca
Ca8 1.0000000000 0.7285261984 0.2354781440 0.2723422331  Biso 1.0 Ca
Ca9 1.0000000000 0.2354781440 0.7723422331 0.2285261984  Biso 1.0 Ca
Ca10 1.0000000000 0.2645218560 0.9930480544 0.0368640891  Biso 1.0 Ca
Ca11 1.0000000000 0.9561839653 0.7276577669 0.4631359109  Biso 1.0 Ca
Ca12 1.0000000000 0.5438160347 0.5069519456 0.2714738016  Biso 1.0 Ca
Ca13 1.0000000000 0.0069519456 0.4631359109 0.2354781440  Biso 1.0 Ca
Ca14 1.0000000000 0.2276577669 0.2714738016 0.2645218560  Biso 1.0 Ca
Ca15 1.0000000000 0.4930480544 0.2285261984 0.9561839653  Biso 1.0 Ca
Ca16 1.0000000000 0.2723422331 0.0368640891 0.5438160347  Biso 1.0 Ca
Ca17 1.0000000000 0.2285261984 0.4561839653 0.9930480544  Biso 1.0 Ca
Ca18 1.0000000000 0.0368640891 0.0438160347 0.7723422331  Biso 1.0 Ca
Ca19 1.0000000000 0.4631359109 0.7354781440 0.5069519456  Biso 1.0 Ca
Ca20 1.0000000000 0.2714738016 0.7645218560 0.7276577669  Biso 1.0 Ca
Ca21 1.0000000000 0.7645218560 0.2276577669 0.7714738016  Biso 1.0 Ca
Ca22 1.0000000000 0.7354781440 0.0069519456 0.9631359109  Biso 1.0 Ca
Ca23 1.0000000000 0.0438160347 0.2723422331 0.5368640891  Biso 1.0 Ca
Ca24 1.0000000000 0.4561839653 0.4930480544 0.7285261984  Biso 1.0 Ca
N25 1.0000000000 0.0000000000 0.5000000000 0.0000000000  Biso 1.0 N
N26 1.0000000000 0.5000000000 0.5000000000 0.5000000000  Biso 1.0 N
N27 1.0000000000 0.5000000000 0.0000000000 0.0000000000  Biso 1.0 N
N28 1.0000000000 0.0000000000 0.0000000000 0.5000000000  Biso 1.0 N
N29 1.0000000000 0.2893498778 0.2500000000 0.0393498778  Biso 1.0 N
N30 1.0000000000 0.2106501222 0.7500000000 0.4606501222  Biso 1.0 N
N31 1.0000000000 0.7500000000 0.9606501222 0.7106501222  Biso 1.0 N
N32 1.0000000000 0.2500000000 0.5393498778 0.7893498778  Biso 1.0 N
N33 1.0000000000 0.9606501222 0.2106501222 0.2500000000  Biso 1.0 N
N34 1.0000000000 0.5393498778 0.2893498778 0.7500000000  Biso 1.0 N
N35 1.0000000000 0.7106501222 0.7500000000 0.9606501222  Biso 1.0 N
N36 1.0000000000 0.7893498778 0.2500000000 0.5393498778  Biso 1.0 N
N37 1.0000000000 0.2500000000 0.0393498778 0.2893498778  Biso 1.0 N
N38 1.0000000000 0.7500000000 0.4606501222 0.2106501222  Biso 1.0 N
N39 1.0000000000 0.0393498778 0.7893498778 0.7500000000  Biso 1.0 N
N40 1.0000000000 0.4606501222 0.7106501222 0.2500000000  Biso 1.0 N
