# AFLOW.org Repositories
# Ca3N2   [BCC,BCC,cI80] (STD_PRIM doi:10.
data_Ca3N2
_pd_phase_name Ca3N2
_cell_length_a  9.9375719168
_cell_length_b  9.9375719168
_cell_length_c  9.9375719168
_cell_angle_alpha  109.4712206345
_cell_angle_beta  109.4712206345
_cell_angle_gamma  109.4712206345
_symmetry_space_group_name_H-M  'P1'
_symmetry_Int_Tables_Number  1
loop_
_symmetry_equiv_pos_site_id
_symmetry_equiv_pos_as_xyz
  1  x,y,z
loop_
 _atom_site_label
 _atom_site_occupancy
 _atom_site_fract_x
 _atom_site_fract_y
 _atom_site_fract_z
 _atom_site_thermal_displace_type
 _atom_site_B_iso_or_equiv
 _atom_site_type_symbol
Ca1 1.0000000000 0.0071068450 0.2356075513 0.4632913086  Biso 1.0 Ca
Ca2 1.0000000000 0.2276837573 0.2643924487 0.2714992937  Biso 1.0 Ca
Ca3 1.0000000000 0.4928931550 0.9561844636 0.2285007063  Biso 1.0 Ca
Ca4 1.0000000000 0.2723162427 0.5438155364 0.0367086914  Biso 1.0 Ca
Ca5 1.0000000000 0.2285007063 0.9928931550 0.4561844636  Biso 1.0 Ca
Ca6 1.0000000000 0.0367086914 0.7723162427 0.0438155364  Biso 1.0 Ca
Ca7 1.0000000000 0.4632913086 0.5071068450 0.7356075513  Biso 1.0 Ca
Ca8 1.0000000000 0.2714992937 0.7276837573 0.7643924487  Biso 1.0 Ca
Ca9 1.0000000000 0.7643924487 0.7714992937 0.2276837573  Biso 1.0 Ca
Ca10 1.0000000000 0.7356075513 0.9632913086 0.0071068450  Biso 1.0 Ca
Ca11 1.0000000000 0.0438155364 0.5367086914 0.2723162427  Biso 1.0 Ca
Ca12 1.0000000000 0.4561844636 0.7285007063 0.4928931550  Biso 1.0 Ca
Ca13 1.0000000000 0.9928931550 0.7643924487 0.5367086914  Biso 1.0 Ca
Ca14 1.0000000000 0.7723162427 0.7356075513 0.7285007063  Biso 1.0 Ca
Ca15 1.0000000000 0.5071068450 0.0438155364 0.7714992937  Biso 1.0 Ca
Ca16 1.0000000000 0.7276837573 0.4561844636 0.9632913086  Biso 1.0 Ca
Ca17 1.0000000000 0.7714992937 0.0071068450 0.5438155364  Biso 1.0 Ca
Ca18 1.0000000000 0.9632913086 0.2276837573 0.9561844636  Biso 1.0 Ca
Ca19 1.0000000000 0.5367086914 0.4928931550 0.2643924487  Biso 1.0 Ca
Ca20 1.0000000000 0.7285007063 0.2723162427 0.2356075513  Biso 1.0 Ca
Ca21 1.0000000000 0.2356075513 0.2285007063 0.7723162427  Biso 1.0 Ca
Ca22 1.0000000000 0.2643924487 0.0367086914 0.9928931550  Biso 1.0 Ca
Ca23 1.0000000000 0.9561844636 0.4632913086 0.7276837573  Biso 1.0 Ca
Ca24 1.0000000000 0.5438155364 0.2714992937 0.5071068450  Biso 1.0 Ca
N25 1.0000000000 0.0000000000 0.0000000000 0.5000000000  Biso 1.0 N
N26 1.0000000000 0.5000000000 0.5000000000 0.5000000000  Biso 1.0 N
N27 1.0000000000 0.5000000000 0.0000000000 0.0000000000  Biso 1.0 N
N28 1.0000000000 0.0000000000 0.5000000000 0.0000000000  Biso 1.0 N
N29 1.0000000000 0.7105676041 0.9605676041 0.7500000000  Biso 1.0 N
N30 1.0000000000 0.7894323959 0.5394323959 0.2500000000  Biso 1.0 N
N31 1.0000000000 0.2500000000 0.2894323959 0.0394323959  Biso 1.0 N
N32 1.0000000000 0.7500000000 0.2105676041 0.4605676041  Biso 1.0 N
N33 1.0000000000 0.0394323959 0.7500000000 0.7894323959  Biso 1.0 N
N34 1.0000000000 0.4605676041 0.2500000000 0.7105676041  Biso 1.0 N
N35 1.0000000000 0.2894323959 0.0394323959 0.2500000000  Biso 1.0 N
N36 1.0000000000 0.2105676041 0.4605676041 0.7500000000  Biso 1.0 N
N37 1.0000000000 0.7500000000 0.7105676041 0.9605676041  Biso 1.0 N
N38 1.0000000000 0.2500000000 0.7894323959 0.5394323959  Biso 1.0 N
N39 1.0000000000 0.9605676041 0.2500000000 0.2105676041  Biso 1.0 N
N40 1.0000000000 0.5394323959 0.7500000000 0.2894323959  Biso 1.0 N
