# AFLOW.org Repositories
# Ca3Rh4Sn13   [CUB,CUB,cP40] (STD_PRIM do
data_Ca3Rh4Sn13
_pd_phase_name Ca3Rh4Sn13
_cell_length_a  9.9072758615
_cell_length_b  9.9072758615
_cell_length_c  9.9072758615
_cell_angle_alpha  90.0000000000
_cell_angle_beta  90.0000000000
_cell_angle_gamma  90.0000000000
_symmetry_space_group_name_H-M  'P1'
_symmetry_Int_Tables_Number  1
loop_
_symmetry_equiv_pos_site_id
_symmetry_equiv_pos_as_xyz
  1  x,y,z
loop_
 _atom_site_label
 _atom_site_occupancy
 _atom_site_fract_x
 _atom_site_fract_y
 _atom_site_fract_z
 _atom_site_thermal_displace_type
 _atom_site_B_iso_or_equiv
 _atom_site_type_symbol
Ca1 1.0000000000 0.7500000000 0.5000000000 0.0000000000  Biso 1.0 Ca
Ca2 1.0000000000 0.2500000000 0.5000000000 0.0000000000  Biso 1.0 Ca
Ca3 1.0000000000 0.0000000000 0.7500000000 0.5000000000  Biso 1.0 Ca
Ca4 1.0000000000 0.0000000000 0.2500000000 0.5000000000  Biso 1.0 Ca
Ca5 1.0000000000 0.5000000000 0.0000000000 0.2500000000  Biso 1.0 Ca
Ca6 1.0000000000 0.5000000000 0.0000000000 0.7500000000  Biso 1.0 Ca
Rh7 1.0000000000 0.7500000000 0.7500000000 0.2500000000  Biso 1.0 Rh
Rh8 1.0000000000 0.2500000000 0.2500000000 0.2500000000  Biso 1.0 Rh
Rh9 1.0000000000 0.2500000000 0.7500000000 0.7500000000  Biso 1.0 Rh
Rh10 1.0000000000 0.7500000000 0.2500000000 0.7500000000  Biso 1.0 Rh
Rh11 1.0000000000 0.2500000000 0.2500000000 0.7500000000  Biso 1.0 Rh
Rh12 1.0000000000 0.7500000000 0.7500000000 0.7500000000  Biso 1.0 Rh
Rh13 1.0000000000 0.7500000000 0.2500000000 0.2500000000  Biso 1.0 Rh
Rh14 1.0000000000 0.2500000000 0.7500000000 0.2500000000  Biso 1.0 Rh
Sn15 1.0000000000 0.0000000000 0.0000000000 0.0000000000  Biso 1.0 Sn
Sn16 1.0000000000 0.5000000000 0.5000000000 0.5000000000  Biso 1.0 Sn
Sn17 1.0000000000 0.0000000000 0.6956247814 0.1545768452  Biso 1.0 Sn
Sn18 1.0000000000 0.0000000000 0.3043752186 0.1545768452  Biso 1.0 Sn
Sn19 1.0000000000 0.0000000000 0.6956247814 0.8454231548  Biso 1.0 Sn
Sn20 1.0000000000 0.0000000000 0.3043752186 0.8454231548  Biso 1.0 Sn
Sn21 1.0000000000 0.8454231548 0.0000000000 0.3043752186  Biso 1.0 Sn
Sn22 1.0000000000 0.8454231548 0.0000000000 0.6956247814  Biso 1.0 Sn
Sn23 1.0000000000 0.1545768452 0.0000000000 0.3043752186  Biso 1.0 Sn
Sn24 1.0000000000 0.1545768452 0.0000000000 0.6956247814  Biso 1.0 Sn
Sn25 1.0000000000 0.6956247814 0.8454231548 0.0000000000  Biso 1.0 Sn
Sn26 1.0000000000 0.3043752186 0.8454231548 0.0000000000  Biso 1.0 Sn
Sn27 1.0000000000 0.6956247814 0.1545768452 0.0000000000  Biso 1.0 Sn
Sn28 1.0000000000 0.3043752186 0.1545768452 0.0000000000  Biso 1.0 Sn
Sn29 1.0000000000 0.1956247814 0.5000000000 0.3454231548  Biso 1.0 Sn
Sn30 1.0000000000 0.8043752186 0.5000000000 0.3454231548  Biso 1.0 Sn
Sn31 1.0000000000 0.1956247814 0.5000000000 0.6545768452  Biso 1.0 Sn
Sn32 1.0000000000 0.8043752186 0.5000000000 0.6545768452  Biso 1.0 Sn
Sn33 1.0000000000 0.5000000000 0.3454231548 0.1956247814  Biso 1.0 Sn
Sn34 1.0000000000 0.5000000000 0.3454231548 0.8043752186  Biso 1.0 Sn
Sn35 1.0000000000 0.5000000000 0.6545768452 0.1956247814  Biso 1.0 Sn
Sn36 1.0000000000 0.5000000000 0.6545768452 0.8043752186  Biso 1.0 Sn
Sn37 1.0000000000 0.3454231548 0.1956247814 0.5000000000  Biso 1.0 Sn
Sn38 1.0000000000 0.3454231548 0.8043752186 0.5000000000  Biso 1.0 Sn
Sn39 1.0000000000 0.6545768452 0.1956247814 0.5000000000  Biso 1.0 Sn
Sn40 1.0000000000 0.6545768452 0.8043752186 0.5000000000  Biso 1.0 Sn
