# AFLOW.org Repositories
# Ca4Cl6O1   [HEX,HEX,hP22] (STD_PRIM doi:
data_Ca4Cl6O1
_pd_phase_name Ca4Cl6O1
_cell_length_a  9.1416074817
_cell_length_b  9.1416074817
_cell_length_c  6.9125914296
_cell_angle_alpha  90.0000000000
_cell_angle_beta  90.0000000000
_cell_angle_gamma  120.0000000000
_symmetry_space_group_name_H-M  'P1'
_symmetry_Int_Tables_Number  1
loop_
_symmetry_equiv_pos_site_id
_symmetry_equiv_pos_as_xyz
  1  x,y,z
loop_
 _atom_site_label
 _atom_site_occupancy
 _atom_site_fract_x
 _atom_site_fract_y
 _atom_site_fract_z
 _atom_site_thermal_displace_type
 _atom_site_B_iso_or_equiv
 _atom_site_type_symbol
Ca1 1.0000000000 0.3333192390 0.6666807610 0.4275566317  Biso 1.0 Ca
Ca2 1.0000000000 0.6666807610 0.3333192390 0.9275566317  Biso 1.0 Ca
Ca3 1.0000000000 0.1988840495 0.8011159505 0.0000000000  Biso 1.0 Ca
Ca4 1.0000000000 0.1988957521 0.3977836684 0.0000000000  Biso 1.0 Ca
Ca5 1.0000000000 0.6022163316 0.8011042479 0.0000000000  Biso 1.0 Ca
Ca6 1.0000000000 0.8011159505 0.1988840495 0.5003296426  Biso 1.0 Ca
Ca7 1.0000000000 0.8011042479 0.6022163316 0.5003379651  Biso 1.0 Ca
Ca8 1.0000000000 0.3977836684 0.1988957521 0.5003379651  Biso 1.0 Ca
Cl9 1.0000000000 0.1378719119 0.8621280881 0.3823410568  Biso 1.0 Cl
Cl10 1.0000000000 0.1378755214 0.2757424140 0.3823359755  Biso 1.0 Cl
Cl11 1.0000000000 0.7242575860 0.8621244786 0.3823359755  Biso 1.0 Cl
Cl12 1.0000000000 0.8621280881 0.1378719119 0.8823410568  Biso 1.0 Cl
Cl13 1.0000000000 0.8621244786 0.7242575860 0.8823359755  Biso 1.0 Cl
Cl14 1.0000000000 0.2757424140 0.1378755214 0.8823359755  Biso 1.0 Cl
Cl15 1.0000000000 0.4627683425 0.5372316575 0.7095153945  Biso 1.0 Cl
Cl16 1.0000000000 0.4627748269 0.9255530046 0.7095378885  Biso 1.0 Cl
Cl17 1.0000000000 0.0744469954 0.5372251731 0.7095378885  Biso 1.0 Cl
Cl18 1.0000000000 0.5372316575 0.4627683425 0.2095153945  Biso 1.0 Cl
Cl19 1.0000000000 0.5372251731 0.0744469954 0.2095378885  Biso 1.0 Cl
Cl20 1.0000000000 0.9255530046 0.4627748269 0.2095378885  Biso 1.0 Cl
O21 1.0000000000 0.3333304678 0.6666695322 0.1067336161  Biso 1.0 O
O22 1.0000000000 0.6666695322 0.3333304678 0.6067336161  Biso 1.0 O
