# AFLOW.org Repositories
# Ca5In2Sb6   [ORC,ORC,oP26] (STD_PRIM doi
data_Ca5In2Sb6
_pd_phase_name Ca5In2Sb6
_cell_length_a  4.6174844010
_cell_length_b  12.1814353968
_cell_length_c  14.3684021220
_cell_angle_alpha  90.0000000000
_cell_angle_beta  90.0000000000
_cell_angle_gamma  90.0000000000
_symmetry_space_group_name_H-M  'P1'
_symmetry_Int_Tables_Number  1
loop_
_symmetry_equiv_pos_site_id
_symmetry_equiv_pos_as_xyz
  1  x,y,z
loop_
 _atom_site_label
 _atom_site_occupancy
 _atom_site_fract_x
 _atom_site_fract_y
 _atom_site_fract_z
 _atom_site_thermal_displace_type
 _atom_site_B_iso_or_equiv
 _atom_site_type_symbol
Ca1 1.0000000000 0.5000000000 0.3231096521 0.4853481442  Biso 1.0 Ca
Ca2 1.0000000000 0.5000000000 0.6768903479 0.5146518558  Biso 1.0 Ca
Ca3 1.0000000000 0.5000000000 0.8231096521 0.0146518558  Biso 1.0 Ca
Ca4 1.0000000000 0.5000000000 0.1768903479 0.9853481442  Biso 1.0 Ca
Ca5 1.0000000000 0.5000000000 0.5908177440 0.2475687602  Biso 1.0 Ca
Ca6 1.0000000000 0.5000000000 0.4091822560 0.7524312398  Biso 1.0 Ca
Ca7 1.0000000000 0.5000000000 0.0908177440 0.2524312398  Biso 1.0 Ca
Ca8 1.0000000000 0.5000000000 0.9091822560 0.7475687602  Biso 1.0 Ca
Ca9 1.0000000000 0.5000000000 0.5000000000 0.0000000000  Biso 1.0 Ca
Ca10 1.0000000000 0.5000000000 0.0000000000 0.5000000000  Biso 1.0 Ca
In11 1.0000000000 0.0000000000 0.3367554532 0.2864684909  Biso 1.0 In
In12 1.0000000000 0.0000000000 0.6632445468 0.7135315091  Biso 1.0 In
In13 1.0000000000 0.0000000000 0.8367554532 0.2135315091  Biso 1.0 In
In14 1.0000000000 0.0000000000 0.1632445468 0.7864684909  Biso 1.0 In
Sb15 1.0000000000 0.0000000000 0.1500199149 0.4075869913  Biso 1.0 Sb
Sb16 1.0000000000 0.0000000000 0.8499800851 0.5924130087  Biso 1.0 Sb
Sb17 1.0000000000 0.0000000000 0.6500199149 0.0924130087  Biso 1.0 Sb
Sb18 1.0000000000 0.0000000000 0.3499800851 0.9075869913  Biso 1.0 Sb
Sb19 1.0000000000 0.5000000000 0.3375224278 0.1699418411  Biso 1.0 Sb
Sb20 1.0000000000 0.5000000000 0.6624775722 0.8300581589  Biso 1.0 Sb
Sb21 1.0000000000 0.5000000000 0.8375224278 0.3300581589  Biso 1.0 Sb
Sb22 1.0000000000 0.5000000000 0.1624775722 0.6699418411  Biso 1.0 Sb
Sb23 1.0000000000 0.0000000000 0.5385335849 0.4041306919  Biso 1.0 Sb
Sb24 1.0000000000 0.0000000000 0.4614664151 0.5958693081  Biso 1.0 Sb
Sb25 1.0000000000 0.0000000000 0.0385335849 0.0958693081  Biso 1.0 Sb
Sb26 1.0000000000 0.0000000000 0.9614664151 0.9041306919  Biso 1.0 Sb
