# AFLOW.org Repositories
# Ca5Sb3   [HEX,HEX,hP16] (STD_PRIM doi:10
data_Ca5Sb3
_pd_phase_name Ca5Sb3
_cell_length_a  9.0839190419
_cell_length_b  9.0839190419
_cell_length_c  6.9868191681
_cell_angle_alpha  90.0000000000
_cell_angle_beta  90.0000000000
_cell_angle_gamma  120.0000000000
_symmetry_space_group_name_H-M  'P1'
_symmetry_Int_Tables_Number  1
loop_
_symmetry_equiv_pos_site_id
_symmetry_equiv_pos_as_xyz
  1  x,y,z
loop_
 _atom_site_label
 _atom_site_occupancy
 _atom_site_fract_x
 _atom_site_fract_y
 _atom_site_fract_z
 _atom_site_thermal_displace_type
 _atom_site_B_iso_or_equiv
 _atom_site_type_symbol
Ca1 1.0000000000 0.3333275642 0.6666724358 0.0000000000  Biso 1.0 Ca
Ca2 1.0000000000 0.6666724358 0.3333275642 0.5000000000  Biso 1.0 Ca
Ca3 1.0000000000 0.6666724358 0.3333275642 0.0000000000  Biso 1.0 Ca
Ca4 1.0000000000 0.3333275642 0.6666724358 0.5000000000  Biso 1.0 Ca
Ca5 1.0000000000 0.2520785598 0.0000000000 0.2500000000  Biso 1.0 Ca
Ca6 1.0000000000 0.0000000000 0.2520785598 0.2500000000  Biso 1.0 Ca
Ca7 1.0000000000 0.7479098373 0.7479098373 0.2500000000  Biso 1.0 Ca
Ca8 1.0000000000 0.7479214402 0.0000000000 0.7500000000  Biso 1.0 Ca
Ca9 1.0000000000 0.0000000000 0.7479214402 0.7500000000  Biso 1.0 Ca
Ca10 1.0000000000 0.2520901627 0.2520901627 0.7500000000  Biso 1.0 Ca
Sb11 1.0000000000 0.6110543459 0.0000000000 0.2500000000  Biso 1.0 Sb
Sb12 1.0000000000 0.0000000000 0.6110543459 0.2500000000  Biso 1.0 Sb
Sb13 1.0000000000 0.3889526853 0.3889526853 0.2500000000  Biso 1.0 Sb
Sb14 1.0000000000 0.3889456541 0.0000000000 0.7500000000  Biso 1.0 Sb
Sb15 1.0000000000 0.0000000000 0.3889456541 0.7500000000  Biso 1.0 Sb
Sb16 1.0000000000 0.6110473147 0.6110473147 0.7500000000  Biso 1.0 Sb
