# AFLOW.org Repositories
# Cd11La1   [CUB,CUB,cP36] (STD_PRIM doi:1
data_Cd11La1
_pd_phase_name Cd11La1
_cell_length_a  9.4441847080
_cell_length_b  9.4441847080
_cell_length_c  9.4441847080
_cell_angle_alpha  90.0000000000
_cell_angle_beta  90.0000000000
_cell_angle_gamma  90.0000000000
_symmetry_space_group_name_H-M  'P1'
_symmetry_Int_Tables_Number  1
loop_
_symmetry_equiv_pos_site_id
_symmetry_equiv_pos_as_xyz
  1  x,y,z
loop_
 _atom_site_label
 _atom_site_occupancy
 _atom_site_fract_x
 _atom_site_fract_y
 _atom_site_fract_z
 _atom_site_thermal_displace_type
 _atom_site_B_iso_or_equiv
 _atom_site_type_symbol
Cd1 1.0000000000 0.5000000000 0.5000000000 0.5000000000  Biso 1.0 Cd
Cd2 1.0000000000 0.8432506902 0.8432506902 0.1567493098  Biso 1.0 Cd
Cd3 1.0000000000 0.1567493098 0.1567493098 0.1567493098  Biso 1.0 Cd
Cd4 1.0000000000 0.1567493098 0.8432506902 0.8432506902  Biso 1.0 Cd
Cd5 1.0000000000 0.8432506902 0.1567493098 0.8432506902  Biso 1.0 Cd
Cd6 1.0000000000 0.8432506902 0.8432506902 0.8432506902  Biso 1.0 Cd
Cd7 1.0000000000 0.1567493098 0.1567493098 0.8432506902  Biso 1.0 Cd
Cd8 1.0000000000 0.8432506902 0.1567493098 0.1567493098  Biso 1.0 Cd
Cd9 1.0000000000 0.1567493098 0.8432506902 0.1567493098  Biso 1.0 Cd
Cd10 1.0000000000 0.6545402990 0.6545402990 0.0000000000  Biso 1.0 Cd
Cd11 1.0000000000 0.3454597010 0.3454597010 0.0000000000  Biso 1.0 Cd
Cd12 1.0000000000 0.3454597010 0.6545402990 0.0000000000  Biso 1.0 Cd
Cd13 1.0000000000 0.6545402990 0.3454597010 0.0000000000  Biso 1.0 Cd
Cd14 1.0000000000 0.0000000000 0.6545402990 0.3454597010  Biso 1.0 Cd
Cd15 1.0000000000 0.0000000000 0.3454597010 0.6545402990  Biso 1.0 Cd
Cd16 1.0000000000 0.0000000000 0.3454597010 0.3454597010  Biso 1.0 Cd
Cd17 1.0000000000 0.0000000000 0.6545402990 0.6545402990  Biso 1.0 Cd
Cd18 1.0000000000 0.6545402990 0.0000000000 0.3454597010  Biso 1.0 Cd
Cd19 1.0000000000 0.3454597010 0.0000000000 0.6545402990  Biso 1.0 Cd
Cd20 1.0000000000 0.6545402990 0.0000000000 0.6545402990  Biso 1.0 Cd
Cd21 1.0000000000 0.3454597010 0.0000000000 0.3454597010  Biso 1.0 Cd
Cd22 1.0000000000 0.7336881016 0.7336881016 0.5000000000  Biso 1.0 Cd
Cd23 1.0000000000 0.2663118984 0.2663118984 0.5000000000  Biso 1.0 Cd
Cd24 1.0000000000 0.2663118984 0.7336881016 0.5000000000  Biso 1.0 Cd
Cd25 1.0000000000 0.7336881016 0.2663118984 0.5000000000  Biso 1.0 Cd
Cd26 1.0000000000 0.5000000000 0.7336881016 0.2663118984  Biso 1.0 Cd
Cd27 1.0000000000 0.5000000000 0.2663118984 0.7336881016  Biso 1.0 Cd
Cd28 1.0000000000 0.5000000000 0.2663118984 0.2663118984  Biso 1.0 Cd
Cd29 1.0000000000 0.5000000000 0.7336881016 0.7336881016  Biso 1.0 Cd
Cd30 1.0000000000 0.7336881016 0.5000000000 0.2663118984  Biso 1.0 Cd
Cd31 1.0000000000 0.2663118984 0.5000000000 0.7336881016  Biso 1.0 Cd
Cd32 1.0000000000 0.7336881016 0.5000000000 0.7336881016  Biso 1.0 Cd
Cd33 1.0000000000 0.2663118984 0.5000000000 0.2663118984  Biso 1.0 Cd
La34 1.0000000000 0.0000000000 0.0000000000 0.5000000000  Biso 1.0 La
La35 1.0000000000 0.5000000000 0.0000000000 0.0000000000  Biso 1.0 La
La36 1.0000000000 0.0000000000 0.5000000000 0.0000000000  Biso 1.0 La
