# AFLOW.org Repositories
# Cd1Co1Ho4   [FCC,FCC,cF96] (STD_PRIM doi
data_Cd1Co1Ho4
_pd_phase_name Cd1Co1Ho4
_cell_length_a  9.4236879234
_cell_length_b  9.4236879234
_cell_length_c  9.4236879234
_cell_angle_alpha  60.0000000000
_cell_angle_beta  60.0000000000
_cell_angle_gamma  60.0000000000
_symmetry_space_group_name_H-M  'P1'
_symmetry_Int_Tables_Number  1
loop_
_symmetry_equiv_pos_site_id
_symmetry_equiv_pos_as_xyz
  1  x,y,z
loop_
 _atom_site_label
 _atom_site_occupancy
 _atom_site_fract_x
 _atom_site_fract_y
 _atom_site_fract_z
 _atom_site_thermal_displace_type
 _atom_site_B_iso_or_equiv
 _atom_site_type_symbol
Cd1 1.0000000000 0.5806230818 0.5806230818 0.5806230818  Biso 1.0 Cd
Cd2 1.0000000000 0.5806230818 0.5806230818 0.2581307547  Biso 1.0 Cd
Cd3 1.0000000000 0.2581307547 0.5806230818 0.5806230818  Biso 1.0 Cd
Cd4 1.0000000000 0.5806230818 0.2581307547 0.5806230818  Biso 1.0 Cd
Co5 1.0000000000 0.1408575548 0.1408575548 0.1408575548  Biso 1.0 Co
Co6 1.0000000000 0.1408575548 0.1408575548 0.5774273355  Biso 1.0 Co
Co7 1.0000000000 0.5774273355 0.1408575548 0.1408575548  Biso 1.0 Co
Co8 1.0000000000 0.1408575548 0.5774273355 0.1408575548  Biso 1.0 Co
Ho9 1.0000000000 0.5630967143 0.9369032857 0.5630967143  Biso 1.0 Ho
Ho10 1.0000000000 0.9369032857 0.5630967143 0.9369032857  Biso 1.0 Ho
Ho11 1.0000000000 0.9369032857 0.5630967143 0.5630967143  Biso 1.0 Ho
Ho12 1.0000000000 0.5630967143 0.9369032857 0.9369032857  Biso 1.0 Ho
Ho13 1.0000000000 0.5630967143 0.5630967143 0.9369032857  Biso 1.0 Ho
Ho14 1.0000000000 0.9369032857 0.9369032857 0.5630967143  Biso 1.0 Ho
Ho15 1.0000000000 0.1875883871 0.8124116129 0.1875883871  Biso 1.0 Ho
Ho16 1.0000000000 0.8124116129 0.1875883871 0.8124116129  Biso 1.0 Ho
Ho17 1.0000000000 0.8124116129 0.1875883871 0.1875883871  Biso 1.0 Ho
Ho18 1.0000000000 0.1875883871 0.8124116129 0.8124116129  Biso 1.0 Ho
Ho19 1.0000000000 0.1875883871 0.1875883871 0.8124116129  Biso 1.0 Ho
Ho20 1.0000000000 0.8124116129 0.8124116129 0.1875883871  Biso 1.0 Ho
Ho21 1.0000000000 0.3453696501 0.3453696501 0.3453696501  Biso 1.0 Ho
Ho22 1.0000000000 0.3453696501 0.3453696501 0.9638910497  Biso 1.0 Ho
Ho23 1.0000000000 0.9638910497 0.3453696501 0.3453696501  Biso 1.0 Ho
Ho24 1.0000000000 0.3453696501 0.9638910497 0.3453696501  Biso 1.0 Ho
