# AFLOW.org Repositories
# Cd1Co1Dy4   [FCC,FCC,cF96] (STD_PRIM doi
data_Cd1Co1Dy4
_pd_phase_name Cd1Co1Dy4
_cell_length_a  9.4690877787
_cell_length_b  9.4690877787
_cell_length_c  9.4690877787
_cell_angle_alpha  60.0000000000
_cell_angle_beta  60.0000000000
_cell_angle_gamma  60.0000000000
_symmetry_space_group_name_H-M  'P1'
_symmetry_Int_Tables_Number  1
loop_
_symmetry_equiv_pos_site_id
_symmetry_equiv_pos_as_xyz
  1  x,y,z
loop_
 _atom_site_label
 _atom_site_occupancy
 _atom_site_fract_x
 _atom_site_fract_y
 _atom_site_fract_z
 _atom_site_thermal_displace_type
 _atom_site_B_iso_or_equiv
 _atom_site_type_symbol
Cd1 1.0000000000 0.7414580412 0.4195139863 0.4195139863  Biso 1.0 Cd
Cd2 1.0000000000 0.4195139863 0.4195139863 0.4195139863  Biso 1.0 Cd
Cd3 1.0000000000 0.4195139863 0.4195139863 0.7414580412  Biso 1.0 Cd
Cd4 1.0000000000 0.4195139863 0.7414580412 0.4195139863  Biso 1.0 Cd
Co5 1.0000000000 0.4223461527 0.8592179491 0.8592179491  Biso 1.0 Co
Co6 1.0000000000 0.8592179491 0.8592179491 0.8592179491  Biso 1.0 Co
Co7 1.0000000000 0.8592179491 0.8592179491 0.4223461527  Biso 1.0 Co
Co8 1.0000000000 0.8592179491 0.4223461527 0.8592179491  Biso 1.0 Co
Dy9 1.0000000000 0.0631702529 0.0631702529 0.4368297471  Biso 1.0 Dy
Dy10 1.0000000000 0.4368297471 0.4368297471 0.0631702529  Biso 1.0 Dy
Dy11 1.0000000000 0.0631702529 0.4368297471 0.0631702529  Biso 1.0 Dy
Dy12 1.0000000000 0.4368297471 0.0631702529 0.4368297471  Biso 1.0 Dy
Dy13 1.0000000000 0.0631702529 0.4368297471 0.4368297471  Biso 1.0 Dy
Dy14 1.0000000000 0.4368297471 0.0631702529 0.0631702529  Biso 1.0 Dy
Dy15 1.0000000000 0.1876080507 0.1876080507 0.8123919493  Biso 1.0 Dy
Dy16 1.0000000000 0.8123919493 0.8123919493 0.1876080507  Biso 1.0 Dy
Dy17 1.0000000000 0.1876080507 0.8123919493 0.1876080507  Biso 1.0 Dy
Dy18 1.0000000000 0.8123919493 0.1876080507 0.8123919493  Biso 1.0 Dy
Dy19 1.0000000000 0.1876080507 0.8123919493 0.8123919493  Biso 1.0 Dy
Dy20 1.0000000000 0.8123919493 0.1876080507 0.1876080507  Biso 1.0 Dy
Dy21 1.0000000000 0.0358820577 0.6547059808 0.6547059808  Biso 1.0 Dy
Dy22 1.0000000000 0.6547059808 0.6547059808 0.6547059808  Biso 1.0 Dy
Dy23 1.0000000000 0.6547059808 0.6547059808 0.0358820577  Biso 1.0 Dy
Dy24 1.0000000000 0.6547059808 0.0358820577 0.6547059808  Biso 1.0 Dy
