# AFLOW.org Repositories
# Cd1Cr2Se4   [FCC,FCC,cF56] (STD_PRIM doi
data_Cd1Cr2Se4
_pd_phase_name Cd1Cr2Se4
_cell_length_a  7.7536405097
_cell_length_b  7.7536405097
_cell_length_c  7.7536405097
_cell_angle_alpha  60.0000000000
_cell_angle_beta  60.0000000000
_cell_angle_gamma  60.0000000000
_symmetry_space_group_name_H-M  'P1'
_symmetry_Int_Tables_Number  1
loop_
_symmetry_equiv_pos_site_id
_symmetry_equiv_pos_as_xyz
  1  x,y,z
loop_
 _atom_site_label
 _atom_site_occupancy
 _atom_site_fract_x
 _atom_site_fract_y
 _atom_site_fract_z
 _atom_site_thermal_displace_type
 _atom_site_B_iso_or_equiv
 _atom_site_type_symbol
Cd1 1.0000000000 0.1250000000 0.6250000000 0.1250000000  Biso 1.0 Cd
Cd2 1.0000000000 0.8750000000 0.3750000000 0.8750000000  Biso 1.0 Cd
Cr3 1.0000000000 0.5000000000 0.5000000000 0.5000000000  Biso 1.0 Cr
Cr4 1.0000000000 0.5000000000 0.0000000000 0.5000000000  Biso 1.0 Cr
Cr5 1.0000000000 0.5000000000 0.0000000000 0.0000000000  Biso 1.0 Cr
Cr6 1.0000000000 0.0000000000 0.0000000000 0.5000000000  Biso 1.0 Cr
Se7 1.0000000000 0.2644530984 0.2066407048 0.2644530984  Biso 1.0 Se
Se8 1.0000000000 0.2644530984 0.7644530984 0.2644530984  Biso 1.0 Se
Se9 1.0000000000 0.2644530984 0.7644530984 0.7066407048  Biso 1.0 Se
Se10 1.0000000000 0.7066407048 0.7644530984 0.2644530984  Biso 1.0 Se
Se11 1.0000000000 0.7355469016 0.2355469016 0.7355469016  Biso 1.0 Se
Se12 1.0000000000 0.7355469016 0.7933592952 0.7355469016  Biso 1.0 Se
Se13 1.0000000000 0.7355469016 0.2355469016 0.2933592952  Biso 1.0 Se
Se14 1.0000000000 0.2933592952 0.2355469016 0.7355469016  Biso 1.0 Se
