# AFLOW.org Repositories
# Cd1Ge2Tb2   [TET,TET,tP10] (STD_PRIM doi
data_Cd1Ge2Tb2
_pd_phase_name Cd1Ge2Tb2
_cell_length_a  7.3418518498
_cell_length_b  7.3418518498
_cell_length_c  4.2112964326
_cell_angle_alpha  90.0000000000
_cell_angle_beta  90.0000000000
_cell_angle_gamma  90.0000000000
_symmetry_space_group_name_H-M  'P1'
_symmetry_Int_Tables_Number  1
loop_
_symmetry_equiv_pos_site_id
_symmetry_equiv_pos_as_xyz
  1  x,y,z
loop_
 _atom_site_label
 _atom_site_occupancy
 _atom_site_fract_x
 _atom_site_fract_y
 _atom_site_fract_z
 _atom_site_thermal_displace_type
 _atom_site_B_iso_or_equiv
 _atom_site_type_symbol
Cd1 1.0000000000 0.0000000000 0.0000000000 0.0000000000  Biso 1.0 Cd
Cd2 1.0000000000 0.5000000000 0.5000000000 0.0000000000  Biso 1.0 Cd
Ge3 1.0000000000 0.6218768479 0.1218768479 0.0000000000  Biso 1.0 Ge
Ge4 1.0000000000 0.3781231521 0.8781231521 0.0000000000  Biso 1.0 Ge
Ge5 1.0000000000 0.8781231521 0.6218768479 0.0000000000  Biso 1.0 Ge
Ge6 1.0000000000 0.1218768479 0.3781231521 0.0000000000  Biso 1.0 Ge
Tb7 1.0000000000 0.1779059118 0.6779059118 0.5000000000  Biso 1.0 Tb
Tb8 1.0000000000 0.8220940882 0.3220940882 0.5000000000  Biso 1.0 Tb
Tb9 1.0000000000 0.3220940882 0.1779059118 0.5000000000  Biso 1.0 Tb
Tb10 1.0000000000 0.6779059118 0.8220940882 0.5000000000  Biso 1.0 Tb
