# AFLOW.org Repositories
# Cd1Ho2Se4   [FCC,FCC,cF56] (STD_PRIM doi
data_Cd1Ho2Se4
_pd_phase_name Cd1Ho2Se4
_cell_length_a  8.3110556678
_cell_length_b  8.3110556678
_cell_length_c  8.3110556678
_cell_angle_alpha  60.0000000000
_cell_angle_beta  60.0000000000
_cell_angle_gamma  60.0000000000
_symmetry_space_group_name_H-M  'P1'
_symmetry_Int_Tables_Number  1
loop_
_symmetry_equiv_pos_site_id
_symmetry_equiv_pos_as_xyz
  1  x,y,z
loop_
 _atom_site_label
 _atom_site_occupancy
 _atom_site_fract_x
 _atom_site_fract_y
 _atom_site_fract_z
 _atom_site_thermal_displace_type
 _atom_site_B_iso_or_equiv
 _atom_site_type_symbol
Cd1 1.0000000000 0.1250000000 0.1250000000 0.1250000000  Biso 1.0 Cd
Cd2 1.0000000000 0.8750000000 0.8750000000 0.8750000000  Biso 1.0 Cd
Ho3 1.0000000000 0.5000000000 0.5000000000 0.5000000000  Biso 1.0 Ho
Ho4 1.0000000000 0.5000000000 0.5000000000 0.0000000000  Biso 1.0 Ho
Ho5 1.0000000000 0.5000000000 0.0000000000 0.5000000000  Biso 1.0 Ho
Ho6 1.0000000000 0.0000000000 0.5000000000 0.5000000000  Biso 1.0 Ho
Se7 1.0000000000 0.2571199295 0.2571199295 0.2571199295  Biso 1.0 Se
Se8 1.0000000000 0.2571199295 0.2571199295 0.7286402114  Biso 1.0 Se
Se9 1.0000000000 0.2571199295 0.7286402114 0.2571199295  Biso 1.0 Se
Se10 1.0000000000 0.7286402114 0.2571199295 0.2571199295  Biso 1.0 Se
Se11 1.0000000000 0.7428800705 0.7428800705 0.2713597886  Biso 1.0 Se
Se12 1.0000000000 0.7428800705 0.7428800705 0.7428800705  Biso 1.0 Se
Se13 1.0000000000 0.7428800705 0.2713597886 0.7428800705  Biso 1.0 Se
Se14 1.0000000000 0.2713597886 0.7428800705 0.7428800705  Biso 1.0 Se
