# AFLOW.org Repositories
# Cd1In2Se4   [BCT,BCT2,tI14] (STD_PRIM do
data_Cd1In2Se4
_pd_phase_name Cd1In2Se4
_cell_length_a  7.2373652999
_cell_length_b  7.2373652999
_cell_length_c  7.2373652999
_cell_angle_alpha  131.1512959923
_cell_angle_beta  131.1512959923
_cell_angle_gamma  71.5728114694
_symmetry_space_group_name_H-M  'P1'
_symmetry_Int_Tables_Number  1
loop_
_symmetry_equiv_pos_site_id
_symmetry_equiv_pos_as_xyz
  1  x,y,z
loop_
 _atom_site_label
 _atom_site_occupancy
 _atom_site_fract_x
 _atom_site_fract_y
 _atom_site_fract_z
 _atom_site_thermal_displace_type
 _atom_site_B_iso_or_equiv
 _atom_site_type_symbol
Cd1 1.0000000000 0.0000000000 0.0000000000 0.0000000000  Biso 1.0 Cd
In2 1.0000000000 0.5000000000 0.5000000000 0.0000000000  Biso 1.0 In
In3 1.0000000000 0.7500000000 0.2500000000 0.5000000000  Biso 1.0 In
Se4 1.0000000000 0.9000815446 0.8637290064 0.4904267115  Biso 1.0 Se
Se5 1.0000000000 0.3733022949 0.4096548331 0.5095732885  Biso 1.0 Se
Se6 1.0000000000 0.1362709936 0.6266977051 0.0363525382  Biso 1.0 Se
Se7 1.0000000000 0.5903451669 0.0999184554 0.9636474618  Biso 1.0 Se
