# AFLOW.org Repositories
# Cd1La2Rh2   [TET,TET,tP10] (STD_PRIM doi
data_Cd1La2Rh2
_pd_phase_name Cd1La2Rh2
_cell_length_a  7.7580575655
_cell_length_b  7.7580575655
_cell_length_c  3.9719594897
_cell_angle_alpha  90.0000000000
_cell_angle_beta  90.0000000000
_cell_angle_gamma  90.0000000000
_symmetry_space_group_name_H-M  'P1'
_symmetry_Int_Tables_Number  1
loop_
_symmetry_equiv_pos_site_id
_symmetry_equiv_pos_as_xyz
  1  x,y,z
loop_
 _atom_site_label
 _atom_site_occupancy
 _atom_site_fract_x
 _atom_site_fract_y
 _atom_site_fract_z
 _atom_site_thermal_displace_type
 _atom_site_B_iso_or_equiv
 _atom_site_type_symbol
Cd1 1.0000000000 0.0000000000 0.0000000000 0.0000000000  Biso 1.0 Cd
Cd2 1.0000000000 0.5000000000 0.5000000000 0.0000000000  Biso 1.0 Cd
La3 1.0000000000 0.1684537227 0.6684537227 0.5000000000  Biso 1.0 La
La4 1.0000000000 0.8315462773 0.3315462773 0.5000000000  Biso 1.0 La
La5 1.0000000000 0.3315462773 0.1684537227 0.5000000000  Biso 1.0 La
La6 1.0000000000 0.6684537227 0.8315462773 0.5000000000  Biso 1.0 La
Rh7 1.0000000000 0.3658667519 0.8658667519 0.0000000000  Biso 1.0 Rh
Rh8 1.0000000000 0.6341332481 0.1341332481 0.0000000000  Biso 1.0 Rh
Rh9 1.0000000000 0.1341332481 0.3658667519 0.0000000000  Biso 1.0 Rh
Rh10 1.0000000000 0.8658667519 0.6341332481 0.0000000000  Biso 1.0 Rh
