# AFLOW.org Repositories
# Cd1La4Ru1   [FCC,FCC,cF96] (STD_PRIM doi
data_Cd1La4Ru1
_pd_phase_name Cd1La4Ru1
_cell_length_a  10.1788114003
_cell_length_b  10.1788114003
_cell_length_c  10.1788114003
_cell_angle_alpha  60.0000000000
_cell_angle_beta  60.0000000000
_cell_angle_gamma  60.0000000000
_symmetry_space_group_name_H-M  'P1'
_symmetry_Int_Tables_Number  1
loop_
_symmetry_equiv_pos_site_id
_symmetry_equiv_pos_as_xyz
  1  x,y,z
loop_
 _atom_site_label
 _atom_site_occupancy
 _atom_site_fract_x
 _atom_site_fract_y
 _atom_site_fract_z
 _atom_site_thermal_displace_type
 _atom_site_B_iso_or_equiv
 _atom_site_type_symbol
Cd1 1.0000000000 0.2643368781 0.5785543740 0.5785543740  Biso 1.0 Cd
Cd2 1.0000000000 0.5785543740 0.5785543740 0.2643368781  Biso 1.0 Cd
Cd3 1.0000000000 0.5785543740 0.2643368781 0.5785543740  Biso 1.0 Cd
Cd4 1.0000000000 0.5785543740 0.5785543740 0.5785543740  Biso 1.0 Cd
La5 1.0000000000 0.9391402336 0.5608597664 0.5608597664  Biso 1.0 La
La6 1.0000000000 0.5608597664 0.9391402336 0.9391402336  Biso 1.0 La
La7 1.0000000000 0.9391402336 0.9391402336 0.5608597664  Biso 1.0 La
La8 1.0000000000 0.5608597664 0.5608597664 0.9391402336  Biso 1.0 La
La9 1.0000000000 0.9391402336 0.5608597664 0.9391402336  Biso 1.0 La
La10 1.0000000000 0.5608597664 0.9391402336 0.5608597664  Biso 1.0 La
La11 1.0000000000 0.8103648717 0.1896351283 0.1896351283  Biso 1.0 La
La12 1.0000000000 0.1896351283 0.8103648717 0.8103648717  Biso 1.0 La
La13 1.0000000000 0.8103648717 0.8103648717 0.1896351283  Biso 1.0 La
La14 1.0000000000 0.1896351283 0.1896351283 0.8103648717  Biso 1.0 La
La15 1.0000000000 0.8103648717 0.1896351283 0.8103648717  Biso 1.0 La
La16 1.0000000000 0.1896351283 0.8103648717 0.1896351283  Biso 1.0 La
La17 1.0000000000 0.9635526473 0.3454824509 0.3454824509  Biso 1.0 La
La18 1.0000000000 0.3454824509 0.3454824509 0.9635526473  Biso 1.0 La
La19 1.0000000000 0.3454824509 0.9635526473 0.3454824509  Biso 1.0 La
La20 1.0000000000 0.3454824509 0.3454824509 0.3454824509  Biso 1.0 La
Ru21 1.0000000000 0.5865434343 0.1378188552 0.1378188552  Biso 1.0 Ru
Ru22 1.0000000000 0.1378188552 0.1378188552 0.5865434343  Biso 1.0 Ru
Ru23 1.0000000000 0.1378188552 0.5865434343 0.1378188552  Biso 1.0 Ru
Ru24 1.0000000000 0.1378188552 0.1378188552 0.1378188552  Biso 1.0 Ru
