# AFLOW.org Repositories
# Cd1Ni4Y1   [FCC,FCC,cF24] (STD_PRIM doi:
data_Cd1Ni4Y1
_pd_phase_name Cd1Ni4Y1
_cell_length_a  4.9597826049
_cell_length_b  4.9597826049
_cell_length_c  4.9597826049
_cell_angle_alpha  60.0000000000
_cell_angle_beta  60.0000000000
_cell_angle_gamma  60.0000000000
_symmetry_space_group_name_H-M  'P1'
_symmetry_Int_Tables_Number  1
loop_
_symmetry_equiv_pos_site_id
_symmetry_equiv_pos_as_xyz
  1  x,y,z
loop_
 _atom_site_label
 _atom_site_occupancy
 _atom_site_fract_x
 _atom_site_fract_y
 _atom_site_fract_z
 _atom_site_thermal_displace_type
 _atom_site_B_iso_or_equiv
 _atom_site_type_symbol
Cd1 1.0000000000 0.0000000000 0.0000000000 0.0000000000  Biso 1.0 Cd
Ni2 1.0000000000 0.6260537146 0.6260537146 0.1218388563  Biso 1.0 Ni
Ni3 1.0000000000 0.6260537146 0.6260537146 0.6260537146  Biso 1.0 Ni
Ni4 1.0000000000 0.1218388563 0.6260537146 0.6260537146  Biso 1.0 Ni
Ni5 1.0000000000 0.6260537146 0.1218388563 0.6260537146  Biso 1.0 Ni
Y6 1.0000000000 0.2500000000 0.2500000000 0.2500000000  Biso 1.0 Y
