# AFLOW.org Repositories
# Cd1O6Sb2   [HEX,HEX,hP9] (STD_PRIM doi:1
data_Cd1O6Sb2
_pd_phase_name Cd1O6Sb2
_cell_length_a  5.3226738052
_cell_length_b  5.3226738052
_cell_length_c  4.9144174485
_cell_angle_alpha  90.0000000000
_cell_angle_beta  90.0000000000
_cell_angle_gamma  120.0000000000
_symmetry_space_group_name_H-M  'P1'
_symmetry_Int_Tables_Number  1
loop_
_symmetry_equiv_pos_site_id
_symmetry_equiv_pos_as_xyz
  1  x,y,z
loop_
 _atom_site_label
 _atom_site_occupancy
 _atom_site_fract_x
 _atom_site_fract_y
 _atom_site_fract_z
 _atom_site_thermal_displace_type
 _atom_site_B_iso_or_equiv
 _atom_site_type_symbol
Cd1 1.0000000000 0.0000000000 0.0000000000 0.0000000000  Biso 1.0 Cd
O2 1.0000000000 0.6337998662 0.6337998662 0.2766117405  Biso 1.0 O
O3 1.0000000000 0.3661983427 0.0000000000 0.2766117405  Biso 1.0 O
O4 1.0000000000 0.0000000000 0.3662056050 0.2766202946  Biso 1.0 O
O5 1.0000000000 0.6338016573 0.0000000000 0.7233882595  Biso 1.0 O
O6 1.0000000000 0.3662001338 0.3662001338 0.7233882595  Biso 1.0 O
O7 1.0000000000 0.0000000000 0.6337943950 0.7233797054  Biso 1.0 O
Sb8 1.0000000000 0.3333301258 0.6666650629 0.5000000000  Biso 1.0 Sb
Sb9 1.0000000000 0.6666698742 0.3333349371 0.5000000000  Biso 1.0 Sb
