# AFLOW.org Repositories
# Cd1O3Sn1   [ORC,ORC,oP20] (STD_PRIM doi:
data_Cd1O3Sn1
_pd_phase_name Cd1O3Sn1
_cell_length_a  5.6058464414
_cell_length_b  5.7307017724
_cell_length_c  8.1221279992
_cell_angle_alpha  90.0000000000
_cell_angle_beta  90.0000000000
_cell_angle_gamma  90.0000000000
_symmetry_space_group_name_H-M  'P1'
_symmetry_Int_Tables_Number  1
loop_
_symmetry_equiv_pos_site_id
_symmetry_equiv_pos_as_xyz
  1  x,y,z
loop_
 _atom_site_label
 _atom_site_occupancy
 _atom_site_fract_x
 _atom_site_fract_y
 _atom_site_fract_z
 _atom_site_thermal_displace_type
 _atom_site_B_iso_or_equiv
 _atom_site_type_symbol
Cd1 1.0000000000 0.4885845039 0.5480565137 0.7500000000  Biso 1.0 Cd
Cd2 1.0000000000 0.9885845039 0.9519434863 0.2500000000  Biso 1.0 Cd
Cd3 1.0000000000 0.5114154961 0.4519434863 0.2500000000  Biso 1.0 Cd
Cd4 1.0000000000 0.0114154961 0.0480565137 0.7500000000  Biso 1.0 Cd
O5 1.0000000000 0.6196855772 0.9396014832 0.7500000000  Biso 1.0 O
O6 1.0000000000 0.1196855772 0.5603985168 0.2500000000  Biso 1.0 O
O7 1.0000000000 0.3803144228 0.0603985168 0.2500000000  Biso 1.0 O
O8 1.0000000000 0.8803144228 0.4396014832 0.7500000000  Biso 1.0 O
O9 1.0000000000 0.3086933146 0.3052009648 0.9348186225  Biso 1.0 O
O10 1.0000000000 0.8086933146 0.1947990352 0.0651813775  Biso 1.0 O
O11 1.0000000000 0.6913066854 0.6947990352 0.4348186225  Biso 1.0 O
O12 1.0000000000 0.1913066854 0.8052009648 0.5651813775  Biso 1.0 O
O13 1.0000000000 0.6913066854 0.6947990352 0.0651813775  Biso 1.0 O
O14 1.0000000000 0.1913066854 0.8052009648 0.9348186225  Biso 1.0 O
O15 1.0000000000 0.3086933146 0.3052009648 0.5651813775  Biso 1.0 O
O16 1.0000000000 0.8086933146 0.1947990352 0.4348186225  Biso 1.0 O
Sn17 1.0000000000 0.5000000000 0.0000000000 0.0000000000  Biso 1.0 Sn
Sn18 1.0000000000 0.0000000000 0.5000000000 0.0000000000  Biso 1.0 Sn
Sn19 1.0000000000 0.5000000000 0.0000000000 0.5000000000  Biso 1.0 Sn
Sn20 1.0000000000 0.0000000000 0.5000000000 0.5000000000  Biso 1.0 Sn
