# AFLOW.org Repositories
# Cd1O6Pt3   [ORCC,ORCC,oS20] (STD_PRIM do
data_Cd1O6Pt3
_pd_phase_name Cd1O6Pt3
_cell_length_a  6.3280466504
_cell_length_b  6.3280466504
_cell_length_c  3.2095220106
_cell_angle_alpha  90.0000000000
_cell_angle_beta  90.0000000000
_cell_angle_gamma  109.3626380340
_symmetry_space_group_name_H-M  'P1'
_symmetry_Int_Tables_Number  1
loop_
_symmetry_equiv_pos_site_id
_symmetry_equiv_pos_as_xyz
  1  x,y,z
loop_
 _atom_site_label
 _atom_site_occupancy
 _atom_site_fract_x
 _atom_site_fract_y
 _atom_site_fract_z
 _atom_site_thermal_displace_type
 _atom_site_B_iso_or_equiv
 _atom_site_type_symbol
Cd1 1.0000000000 0.5000000000 0.5000000000 0.0000000000  Biso 1.0 Cd
O2 1.0000000000 0.6626961123 0.3373038877 0.5000000000  Biso 1.0 O
O3 1.0000000000 0.3373038877 0.6626961123 0.5000000000  Biso 1.0 O
O4 1.0000000000 0.6645780646 0.9230323171 0.0000000000  Biso 1.0 O
O5 1.0000000000 0.3354219354 0.0769676829 0.0000000000  Biso 1.0 O
O6 1.0000000000 0.0769676829 0.3354219354 0.0000000000  Biso 1.0 O
O7 1.0000000000 0.9230323171 0.6645780646 0.0000000000  Biso 1.0 O
Pt8 1.0000000000 0.0000000000 0.0000000000 0.0000000000  Biso 1.0 Pt
Pt9 1.0000000000 0.5000000000 0.0000000000 0.5000000000  Biso 1.0 Pt
Pt10 1.0000000000 0.0000000000 0.5000000000 0.5000000000  Biso 1.0 Pt
