# AFLOW.org Repositories
# Cd1P2Sn1   [BCT,BCT2,tI16] (STD_PRIM doi
data_Cd1P2Sn1
_pd_phase_name Cd1P2Sn1
_cell_length_a  7.2711700487
_cell_length_b  7.2711700487
_cell_length_c  7.2711700487
_cell_angle_alpha  131.2259122392
_cell_angle_beta  131.2259122392
_cell_angle_gamma  71.4543968383
_symmetry_space_group_name_H-M  'P1'
_symmetry_Int_Tables_Number  1
loop_
_symmetry_equiv_pos_site_id
_symmetry_equiv_pos_as_xyz
  1  x,y,z
loop_
 _atom_site_label
 _atom_site_occupancy
 _atom_site_fract_x
 _atom_site_fract_y
 _atom_site_fract_z
 _atom_site_thermal_displace_type
 _atom_site_B_iso_or_equiv
 _atom_site_type_symbol
Cd1 1.0000000000 0.0000000000 0.0000000000 0.0000000000  Biso 1.0 Cd
Cd2 1.0000000000 0.2500000000 0.7500000000 0.5000000000  Biso 1.0 Cd
P3 1.0000000000 0.6250000000 0.1280216908 0.0030216908  Biso 1.0 P
P4 1.0000000000 0.1250000000 0.6219783092 0.9969783092  Biso 1.0 P
P5 1.0000000000 0.3780216908 0.3750000000 0.5030216908  Biso 1.0 P
P6 1.0000000000 0.8719783092 0.8750000000 0.4969783092  Biso 1.0 P
Sn7 1.0000000000 0.5000000000 0.5000000000 0.0000000000  Biso 1.0 Sn
Sn8 1.0000000000 0.7500000000 0.2500000000 0.5000000000  Biso 1.0 Sn
