# AFLOW.org Repositories
# Cd1S4Y2   [FCC,FCC,cF56] (STD_PRIM doi:1
data_Cd1S4Y2
_pd_phase_name Cd1S4Y2
_cell_length_a  7.9898129409
_cell_length_b  7.9898129409
_cell_length_c  7.9898129409
_cell_angle_alpha  60.0000000000
_cell_angle_beta  60.0000000000
_cell_angle_gamma  60.0000000000
_symmetry_space_group_name_H-M  'P1'
_symmetry_Int_Tables_Number  1
loop_
_symmetry_equiv_pos_site_id
_symmetry_equiv_pos_as_xyz
  1  x,y,z
loop_
 _atom_site_label
 _atom_site_occupancy
 _atom_site_fract_x
 _atom_site_fract_y
 _atom_site_fract_z
 _atom_site_thermal_displace_type
 _atom_site_B_iso_or_equiv
 _atom_site_type_symbol
Cd1 1.0000000000 0.6250000000 0.1250000000 0.6250000000  Biso 1.0 Cd
Cd2 1.0000000000 0.3750000000 0.8750000000 0.3750000000  Biso 1.0 Cd
S3 1.0000000000 0.7572161134 0.7283516599 0.7572161134  Biso 1.0 S
S4 1.0000000000 0.7572161134 0.2572161134 0.7572161134  Biso 1.0 S
S5 1.0000000000 0.2283516599 0.2572161134 0.7572161134  Biso 1.0 S
S6 1.0000000000 0.7572161134 0.2572161134 0.2283516599  Biso 1.0 S
S7 1.0000000000 0.2427838866 0.7427838866 0.2427838866  Biso 1.0 S
S8 1.0000000000 0.2427838866 0.2716483401 0.2427838866  Biso 1.0 S
S9 1.0000000000 0.7716483401 0.7427838866 0.2427838866  Biso 1.0 S
S10 1.0000000000 0.2427838866 0.7427838866 0.7716483401  Biso 1.0 S
Y11 1.0000000000 0.0000000000 0.0000000000 0.0000000000  Biso 1.0 Y
Y12 1.0000000000 0.0000000000 0.5000000000 0.0000000000  Biso 1.0 Y
Y13 1.0000000000 0.5000000000 0.5000000000 0.0000000000  Biso 1.0 Y
Y14 1.0000000000 0.0000000000 0.5000000000 0.5000000000  Biso 1.0 Y
