# AFLOW.org Repositories
# Cd1Sb1Tl1   [ORC,ORC,oP12] (STD_PRIM doi
data_Cd1Sb1Tl1
_pd_phase_name Cd1Sb1Tl1
_cell_length_a  4.9778546473
_cell_length_b  8.4527222620
_cell_length_c  8.5214611577
_cell_angle_alpha  90.0000000000
_cell_angle_beta  90.0000000000
_cell_angle_gamma  90.0000000000
_symmetry_space_group_name_H-M  'P1'
_symmetry_Int_Tables_Number  1
loop_
_symmetry_equiv_pos_site_id
_symmetry_equiv_pos_as_xyz
  1  x,y,z
loop_
 _atom_site_label
 _atom_site_occupancy
 _atom_site_fract_x
 _atom_site_fract_y
 _atom_site_fract_z
 _atom_site_thermal_displace_type
 _atom_site_B_iso_or_equiv
 _atom_site_type_symbol
Cd1 1.0000000000 0.7500000000 0.8427151371 0.5868885624  Biso 1.0 Cd
Cd2 1.0000000000 0.2500000000 0.6572848629 0.0868885624  Biso 1.0 Cd
Cd3 1.0000000000 0.2500000000 0.1572848629 0.4131114376  Biso 1.0 Cd
Cd4 1.0000000000 0.7500000000 0.3427151371 0.9131114376  Biso 1.0 Cd
Sb5 1.0000000000 0.7500000000 0.7030010619 0.9033577625  Biso 1.0 Sb
Sb6 1.0000000000 0.2500000000 0.7969989381 0.4033577625  Biso 1.0 Sb
Sb7 1.0000000000 0.2500000000 0.2969989381 0.0966422375  Biso 1.0 Sb
Sb8 1.0000000000 0.7500000000 0.2030010619 0.5966422375  Biso 1.0 Sb
Tl9 1.0000000000 0.7500000000 0.4950279410 0.3227860323  Biso 1.0 Tl
Tl10 1.0000000000 0.2500000000 0.0049720590 0.8227860323  Biso 1.0 Tl
Tl11 1.0000000000 0.2500000000 0.5049720590 0.6772139677  Biso 1.0 Tl
Tl12 1.0000000000 0.7500000000 0.9950279410 0.1772139677  Biso 1.0 Tl
