# AFLOW.org Repositories
# Cd2Ge2Sr1   [BCT,BCT2,tI10] (STD_PRIM do
data_Cd2Ge2Sr1
_pd_phase_name Cd2Ge2Sr1
_cell_length_a  6.7874884750
_cell_length_b  6.7874884750
_cell_length_c  6.7874884750
_cell_angle_alpha  140.8856885038
_cell_angle_beta  140.8856885038
_cell_angle_gamma  56.5109435753
_symmetry_space_group_name_H-M  'P1'
_symmetry_Int_Tables_Number  1
loop_
_symmetry_equiv_pos_site_id
_symmetry_equiv_pos_as_xyz
  1  x,y,z
loop_
 _atom_site_label
 _atom_site_occupancy
 _atom_site_fract_x
 _atom_site_fract_y
 _atom_site_fract_z
 _atom_site_thermal_displace_type
 _atom_site_B_iso_or_equiv
 _atom_site_type_symbol
Cd1 1.0000000000 0.2500000000 0.7500000000 0.5000000000  Biso 1.0 Cd
Cd2 1.0000000000 0.7500000000 0.2500000000 0.5000000000  Biso 1.0 Cd
Ge3 1.0000000000 0.6072139618 0.6072139618 0.0000000000  Biso 1.0 Ge
Ge4 1.0000000000 0.3927860382 0.3927860382 0.0000000000  Biso 1.0 Ge
Sr5 1.0000000000 0.0000000000 0.0000000000 0.0000000000  Biso 1.0 Sr
