# AFLOW.org Repositories
# Cd2La1Pd1   [ORCC,ORCC,oS16] (STD_PRIM d
data_Cd2La1Pd1
_pd_phase_name Cd2La1Pd1
_cell_length_a  5.6066504175
_cell_length_b  5.6066504175
_cell_length_c  8.4298974144
_cell_angle_alpha  90.0000000000
_cell_angle_beta  90.0000000000
_cell_angle_gamma  134.2473831010
_symmetry_space_group_name_H-M  'P1'
_symmetry_Int_Tables_Number  1
loop_
_symmetry_equiv_pos_site_id
_symmetry_equiv_pos_as_xyz
  1  x,y,z
loop_
 _atom_site_label
 _atom_site_occupancy
 _atom_site_fract_x
 _atom_site_fract_y
 _atom_site_fract_z
 _atom_site_thermal_displace_type
 _atom_site_B_iso_or_equiv
 _atom_site_type_symbol
Cd1 1.0000000000 0.6451517155 0.3548482845 0.9500890092  Biso 1.0 Cd
Cd2 1.0000000000 0.3548482845 0.6451517155 0.4500890092  Biso 1.0 Cd
Cd3 1.0000000000 0.6451517155 0.3548482845 0.5499109908  Biso 1.0 Cd
Cd4 1.0000000000 0.3548482845 0.6451517155 0.0499109908  Biso 1.0 Cd
La5 1.0000000000 0.9356042659 0.0643957341 0.7500000000  Biso 1.0 La
La6 1.0000000000 0.0643957341 0.9356042659 0.2500000000  Biso 1.0 La
Pd7 1.0000000000 0.2219165492 0.7780834508 0.7500000000  Biso 1.0 Pd
Pd8 1.0000000000 0.7780834508 0.2219165492 0.2500000000  Biso 1.0 Pd
