# AFLOW.org Repositories
# Cd2Nb2O7   [FCC,FCC,cF88] (STD_PRIM doi:
data_Cd2Nb2O7
_pd_phase_name Cd2Nb2O7
_cell_length_a  7.4302484672
_cell_length_b  7.4302484672
_cell_length_c  7.4302484672
_cell_angle_alpha  60.0000000000
_cell_angle_beta  60.0000000000
_cell_angle_gamma  60.0000000000
_symmetry_space_group_name_H-M  'P1'
_symmetry_Int_Tables_Number  1
loop_
_symmetry_equiv_pos_site_id
_symmetry_equiv_pos_as_xyz
  1  x,y,z
loop_
 _atom_site_label
 _atom_site_occupancy
 _atom_site_fract_x
 _atom_site_fract_y
 _atom_site_fract_z
 _atom_site_thermal_displace_type
 _atom_site_B_iso_or_equiv
 _atom_site_type_symbol
Cd1 1.0000000000 0.3750000000 0.3750000000 0.3750000000  Biso 1.0 Cd
Cd2 1.0000000000 0.3750000000 0.3750000000 0.8750000000  Biso 1.0 Cd
Cd3 1.0000000000 0.8750000000 0.3750000000 0.3750000000  Biso 1.0 Cd
Cd4 1.0000000000 0.3750000000 0.8750000000 0.3750000000  Biso 1.0 Cd
Nb5 1.0000000000 0.8750000000 0.8750000000 0.8750000000  Biso 1.0 Nb
Nb6 1.0000000000 0.8750000000 0.8750000000 0.3750000000  Biso 1.0 Nb
Nb7 1.0000000000 0.3750000000 0.8750000000 0.8750000000  Biso 1.0 Nb
Nb8 1.0000000000 0.8750000000 0.3750000000 0.8750000000  Biso 1.0 Nb
O9 1.0000000000 0.5000000000 0.5000000000 0.5000000000  Biso 1.0 O
O10 1.0000000000 0.2500000000 0.2500000000 0.2500000000  Biso 1.0 O
O11 1.0000000000 0.8076836370 0.1923163630 0.8076836370  Biso 1.0 O
O12 1.0000000000 0.1923163630 0.8076836370 0.1923163630  Biso 1.0 O
O13 1.0000000000 0.1923163630 0.8076836370 0.8076836370  Biso 1.0 O
O14 1.0000000000 0.8076836370 0.1923163630 0.1923163630  Biso 1.0 O
O15 1.0000000000 0.8076836370 0.8076836370 0.1923163630  Biso 1.0 O
O16 1.0000000000 0.1923163630 0.1923163630 0.8076836370  Biso 1.0 O
O17 1.0000000000 0.9423163630 0.5576836370 0.5576836370  Biso 1.0 O
O18 1.0000000000 0.5576836370 0.9423163630 0.9423163630  Biso 1.0 O
O19 1.0000000000 0.5576836370 0.9423163630 0.5576836370  Biso 1.0 O
O20 1.0000000000 0.9423163630 0.5576836370 0.9423163630  Biso 1.0 O
O21 1.0000000000 0.9423163630 0.9423163630 0.5576836370  Biso 1.0 O
O22 1.0000000000 0.5576836370 0.5576836370 0.9423163630  Biso 1.0 O
