# AFLOW.org Repositories
# Cd2O4Sn1   [ORC,ORC,oP14] (STD_PRIM doi:
data_Cd2O4Sn1
_pd_phase_name Cd2O4Sn1
_cell_length_a  3.2811551300
_cell_length_b  5.6748992212
_cell_length_c  10.1195749107
_cell_angle_alpha  90.0000000000
_cell_angle_beta  90.0000000000
_cell_angle_gamma  90.0000000000
_symmetry_space_group_name_H-M  'P1'
_symmetry_Int_Tables_Number  1
loop_
_symmetry_equiv_pos_site_id
_symmetry_equiv_pos_as_xyz
  1  x,y,z
loop_
 _atom_site_label
 _atom_site_occupancy
 _atom_site_fract_x
 _atom_site_fract_y
 _atom_site_fract_z
 _atom_site_thermal_displace_type
 _atom_site_B_iso_or_equiv
 _atom_site_type_symbol
Cd1 1.0000000000 0.5000000000 0.0595431331 0.6772185784  Biso 1.0 Cd
Cd2 1.0000000000 0.5000000000 0.9404568669 0.3227814216  Biso 1.0 Cd
Cd3 1.0000000000 0.5000000000 0.4404568669 0.1772185784  Biso 1.0 Cd
Cd4 1.0000000000 0.5000000000 0.5595431331 0.8227814216  Biso 1.0 Cd
O5 1.0000000000 0.5000000000 0.2391498596 0.9599340031  Biso 1.0 O
O6 1.0000000000 0.5000000000 0.7608501404 0.0400659969  Biso 1.0 O
O7 1.0000000000 0.5000000000 0.2608501404 0.4599340031  Biso 1.0 O
O8 1.0000000000 0.5000000000 0.7391498596 0.5400659969  Biso 1.0 O
O9 1.0000000000 0.0000000000 0.3597507141 0.6939837914  Biso 1.0 O
O10 1.0000000000 0.0000000000 0.6402492859 0.3060162086  Biso 1.0 O
O11 1.0000000000 0.0000000000 0.1402492859 0.1939837914  Biso 1.0 O
O12 1.0000000000 0.0000000000 0.8597507141 0.8060162086  Biso 1.0 O
Sn13 1.0000000000 0.0000000000 0.0000000000 0.0000000000  Biso 1.0 Sn
Sn14 1.0000000000 0.0000000000 0.5000000000 0.5000000000  Biso 1.0 Sn
