# AFLOW.org Repositories
# Cd2Pd1Sr1   [ORCC,ORCC,oS16] (STD_PRIM d
data_Cd2Pd1Sr1
_pd_phase_name Cd2Pd1Sr1
_cell_length_a  5.8018401069
_cell_length_b  5.8018401069
_cell_length_c  8.1912558051
_cell_angle_alpha  90.0000000000
_cell_angle_beta  90.0000000000
_cell_angle_gamma  134.6016558201
_symmetry_space_group_name_H-M  'P1'
_symmetry_Int_Tables_Number  1
loop_
_symmetry_equiv_pos_site_id
_symmetry_equiv_pos_as_xyz
  1  x,y,z
loop_
 _atom_site_label
 _atom_site_occupancy
 _atom_site_fract_x
 _atom_site_fract_y
 _atom_site_fract_z
 _atom_site_thermal_displace_type
 _atom_site_B_iso_or_equiv
 _atom_site_type_symbol
Cd1 1.0000000000 0.6482936116 0.3517063884 0.9441448146  Biso 1.0 Cd
Cd2 1.0000000000 0.3517063884 0.6482936116 0.4441448146  Biso 1.0 Cd
Cd3 1.0000000000 0.6482936116 0.3517063884 0.5558551854  Biso 1.0 Cd
Cd4 1.0000000000 0.3517063884 0.6482936116 0.0558551854  Biso 1.0 Cd
Pd5 1.0000000000 0.2229739918 0.7770260082 0.7500000000  Biso 1.0 Pd
Pd6 1.0000000000 0.7770260082 0.2229739918 0.2500000000  Biso 1.0 Pd
Sr7 1.0000000000 0.9373908867 0.0626091133 0.7500000000  Biso 1.0 Sr
Sr8 1.0000000000 0.0626091133 0.9373908867 0.2500000000  Biso 1.0 Sr
