# AFLOW.org Repositories
# Cd2Sr1   [ORCI,ORCI,oI12] (STD_PRIM doi:
data_Cd2Sr1
_pd_phase_name Cd2Sr1
_cell_length_a  6.4220951284
_cell_length_b  6.4220951284
_cell_length_c  6.4220951284
_cell_angle_alpha  132.8442989772
_cell_angle_beta  102.1347107579
_cell_angle_gamma  96.3026754256
_symmetry_space_group_name_H-M  'P1'
_symmetry_Int_Tables_Number  1
loop_
_symmetry_equiv_pos_site_id
_symmetry_equiv_pos_as_xyz
  1  x,y,z
loop_
 _atom_site_label
 _atom_site_occupancy
 _atom_site_fract_x
 _atom_site_fract_y
 _atom_site_fract_z
 _atom_site_thermal_displace_type
 _atom_site_B_iso_or_equiv
 _atom_site_type_symbol
Cd1 1.0000000000 0.2205589990 0.6643843704 0.5561746286  Biso 1.0 Cd
Cd2 1.0000000000 0.6082097418 0.6643843704 0.9438253714  Biso 1.0 Cd
Cd3 1.0000000000 0.3917902582 0.3356156296 0.0561746286  Biso 1.0 Cd
Cd4 1.0000000000 0.7794410010 0.3356156296 0.4438253714  Biso 1.0 Cd
Sr5 1.0000000000 0.2019833209 0.9519833209 0.2500000000  Biso 1.0 Sr
Sr6 1.0000000000 0.7980166791 0.0480166791 0.7500000000  Biso 1.0 Sr
