# AFLOW.org Repositories
# Ce1Co1Si3   [BCT,BCT2,tI10] (STD_PRIM do
data_Ce1Co1Si3
_pd_phase_name Ce1Co1Si3
_cell_length_a  5.5251167089
_cell_length_b  5.5251167089
_cell_length_c  5.5251167089
_cell_angle_alpha  136.5438222734
_cell_angle_beta  136.5438222734
_cell_angle_gamma  63.1406886864
_symmetry_space_group_name_H-M  'P1'
_symmetry_Int_Tables_Number  1
loop_
_symmetry_equiv_pos_site_id
_symmetry_equiv_pos_as_xyz
  1  x,y,z
loop_
 _atom_site_label
 _atom_site_occupancy
 _atom_site_fract_x
 _atom_site_fract_y
 _atom_site_fract_z
 _atom_site_thermal_displace_type
 _atom_site_B_iso_or_equiv
 _atom_site_type_symbol
Ce1 1.0000000000 0.9989512869 0.9989512869 0.0000000000  Biso 1.0 Ce
Co2 1.0000000000 0.3371467704 0.3371467704 0.0000000000  Biso 1.0 Co
Si3 1.0000000000 0.5727833380 0.5727833380 0.0000000000  Biso 1.0 Si
Si4 1.0000000000 0.2410593024 0.7410593024 0.5000000000  Biso 1.0 Si
Si5 1.0000000000 0.7410593024 0.2410593024 0.5000000000  Biso 1.0 Si
