# AFLOW.org Repositories
# Ce1Fe4P12   [BCC,BCC,cI34] (STD_PRIM doi
data_Ce1Fe4P12
_pd_phase_name Ce1Fe4P12
_cell_length_a  6.7506683258
_cell_length_b  6.7506683258
_cell_length_c  6.7506683258
_cell_angle_alpha  109.4712206345
_cell_angle_beta  109.4712206345
_cell_angle_gamma  109.4712206345
_symmetry_space_group_name_H-M  'P1'
_symmetry_Int_Tables_Number  1
loop_
_symmetry_equiv_pos_site_id
_symmetry_equiv_pos_as_xyz
  1  x,y,z
loop_
 _atom_site_label
 _atom_site_occupancy
 _atom_site_fract_x
 _atom_site_fract_y
 _atom_site_fract_z
 _atom_site_thermal_displace_type
 _atom_site_B_iso_or_equiv
 _atom_site_type_symbol
Ce1 1.0000000000 0.0000000000 0.0000000000 0.0000000000  Biso 1.0 Ce
Fe2 1.0000000000 0.5000000000 0.0000000000 0.0000000000  Biso 1.0 Fe
Fe3 1.0000000000 0.0000000000 0.5000000000 0.0000000000  Biso 1.0 Fe
Fe4 1.0000000000 0.0000000000 0.0000000000 0.5000000000  Biso 1.0 Fe
Fe5 1.0000000000 0.5000000000 0.5000000000 0.5000000000  Biso 1.0 Fe
P6 1.0000000000 0.4975080319 0.8505345513 0.6469734806  Biso 1.0 P
P7 1.0000000000 0.2035610707 0.8505345513 0.3530265194  Biso 1.0 P
P8 1.0000000000 0.7964389293 0.1494654487 0.6469734806  Biso 1.0 P
P9 1.0000000000 0.5024919681 0.1494654487 0.3530265194  Biso 1.0 P
P10 1.0000000000 0.6469734806 0.7964389293 0.1494654487  Biso 1.0 P
P11 1.0000000000 0.3530265194 0.5024919681 0.1494654487  Biso 1.0 P
P12 1.0000000000 0.6469734806 0.4975080319 0.8505345513  Biso 1.0 P
P13 1.0000000000 0.3530265194 0.2035610707 0.8505345513  Biso 1.0 P
P14 1.0000000000 0.8505345513 0.3530265194 0.2035610707  Biso 1.0 P
P15 1.0000000000 0.8505345513 0.6469734806 0.4975080319  Biso 1.0 P
P16 1.0000000000 0.1494654487 0.3530265194 0.5024919681  Biso 1.0 P
P17 1.0000000000 0.1494654487 0.6469734806 0.7964389293  Biso 1.0 P
