# AFLOW.org Repositories
# Ce1Ge3V1   [HEX,HEX,hP10] (STD_PRIM doi:
data_Ce1Ge3V1
_pd_phase_name Ce1Ge3V1
_cell_length_a  6.1976608587
_cell_length_b  6.1976608587
_cell_length_c  5.6405624372
_cell_angle_alpha  90.0000000000
_cell_angle_beta  90.0000000000
_cell_angle_gamma  120.0000000000
_symmetry_space_group_name_H-M  'P1'
_symmetry_Int_Tables_Number  1
loop_
_symmetry_equiv_pos_site_id
_symmetry_equiv_pos_as_xyz
  1  x,y,z
loop_
 _atom_site_label
 _atom_site_occupancy
 _atom_site_fract_x
 _atom_site_fract_y
 _atom_site_fract_z
 _atom_site_thermal_displace_type
 _atom_site_B_iso_or_equiv
 _atom_site_type_symbol
Ce1 1.0000000000 0.6666848964 0.3333697929 0.7500000000  Biso 1.0 Ce
Ce2 1.0000000000 0.3333151036 0.6666302071 0.2500000000  Biso 1.0 Ce
Ge3 1.0000000000 0.3914733548 0.1957177632 0.2500000000  Biso 1.0 Ge
Ge4 1.0000000000 0.8042444084 0.1957177632 0.2500000000  Biso 1.0 Ge
Ge5 1.0000000000 0.8042645900 0.6085291800 0.2500000000  Biso 1.0 Ge
Ge6 1.0000000000 0.6085266452 0.8042822368 0.7500000000  Biso 1.0 Ge
Ge7 1.0000000000 0.1957555916 0.8042822368 0.7500000000  Biso 1.0 Ge
Ge8 1.0000000000 0.1957354100 0.3914708200 0.7500000000  Biso 1.0 Ge
V9 1.0000000000 0.0000000000 0.0000000000 0.0000000000  Biso 1.0 V
V10 1.0000000000 0.0000000000 0.0000000000 0.5000000000  Biso 1.0 V
