# AFLOW.org Repositories
# Ce1Os4P12   [BCC,BCC,cI34] (STD_PRIM doi
data_Ce1Os4P12
_pd_phase_name Ce1Os4P12
_cell_length_a  7.0284667513
_cell_length_b  7.0284667513
_cell_length_c  7.0284667513
_cell_angle_alpha  109.4712206345
_cell_angle_beta  109.4712206345
_cell_angle_gamma  109.4712206345
_symmetry_space_group_name_H-M  'P1'
_symmetry_Int_Tables_Number  1
loop_
_symmetry_equiv_pos_site_id
_symmetry_equiv_pos_as_xyz
  1  x,y,z
loop_
 _atom_site_label
 _atom_site_occupancy
 _atom_site_fract_x
 _atom_site_fract_y
 _atom_site_fract_z
 _atom_site_thermal_displace_type
 _atom_site_B_iso_or_equiv
 _atom_site_type_symbol
Ce1 1.0000000000 0.0000000000 0.0000000000 0.0000000000  Biso 1.0 Ce
Os2 1.0000000000 0.0000000000 0.0000000000 0.5000000000  Biso 1.0 Os
Os3 1.0000000000 0.5000000000 0.0000000000 0.0000000000  Biso 1.0 Os
Os4 1.0000000000 0.0000000000 0.5000000000 0.0000000000  Biso 1.0 Os
Os5 1.0000000000 0.5000000000 0.5000000000 0.5000000000  Biso 1.0 Os
P6 1.0000000000 0.6435118054 0.8572255804 0.5007373857  Biso 1.0 P
P7 1.0000000000 0.6435118054 0.1427744196 0.7862862250  Biso 1.0 P
P8 1.0000000000 0.3564881946 0.8572255804 0.2137137750  Biso 1.0 P
P9 1.0000000000 0.3564881946 0.1427744196 0.4992626143  Biso 1.0 P
P10 1.0000000000 0.2137137750 0.3564881946 0.8572255804  Biso 1.0 P
P11 1.0000000000 0.4992626143 0.3564881946 0.1427744196  Biso 1.0 P
P12 1.0000000000 0.5007373857 0.6435118054 0.8572255804  Biso 1.0 P
P13 1.0000000000 0.7862862250 0.6435118054 0.1427744196  Biso 1.0 P
P14 1.0000000000 0.1427744196 0.7862862250 0.6435118054  Biso 1.0 P
P15 1.0000000000 0.8572255804 0.5007373857 0.6435118054  Biso 1.0 P
P16 1.0000000000 0.1427744196 0.4992626143 0.3564881946  Biso 1.0 P
P17 1.0000000000 0.8572255804 0.2137137750 0.3564881946  Biso 1.0 P
