# AFLOW.org Repositories
# Ce1O4Si1   [BCT,BCT1,tI24] (STD_PRIM doi
data_Ce1O4Si1
_pd_phase_name Ce1O4Si1
_cell_length_a  5.9054536586
_cell_length_b  5.9054536586
_cell_length_c  5.9054536586
_cell_angle_alpha  106.3642369488
_cell_angle_beta  106.3642369488
_cell_angle_gamma  115.8817203510
_symmetry_space_group_name_H-M  'P1'
_symmetry_Int_Tables_Number  1
loop_
_symmetry_equiv_pos_site_id
_symmetry_equiv_pos_as_xyz
  1  x,y,z
loop_
 _atom_site_label
 _atom_site_occupancy
 _atom_site_fract_x
 _atom_site_fract_y
 _atom_site_fract_z
 _atom_site_thermal_displace_type
 _atom_site_B_iso_or_equiv
 _atom_site_type_symbol
Ce1 1.0000000000 0.1250000000 0.3750000000 0.2500000000  Biso 1.0 Ce
Ce2 1.0000000000 0.8750000000 0.6250000000 0.7500000000  Biso 1.0 Ce
O3 1.0000000000 0.2054567612 0.1334830960 0.9280263348  Biso 1.0 O
O4 1.0000000000 0.2054567612 0.7774304263 0.5719736652  Biso 1.0 O
O5 1.0000000000 0.6334830960 0.7054567612 0.4280263348  Biso 1.0 O
O6 1.0000000000 0.2774304263 0.7054567612 0.0719736652  Biso 1.0 O
O7 1.0000000000 0.7945432388 0.2225695737 0.4280263348  Biso 1.0 O
O8 1.0000000000 0.7945432388 0.8665169040 0.0719736652  Biso 1.0 O
O9 1.0000000000 0.3665169040 0.2945432388 0.5719736652  Biso 1.0 O
O10 1.0000000000 0.7225695737 0.2945432388 0.9280263348  Biso 1.0 O
Si11 1.0000000000 0.6250000000 0.8750000000 0.2500000000  Biso 1.0 Si
Si12 1.0000000000 0.3750000000 0.1250000000 0.7500000000  Biso 1.0 Si
