# AFLOW.org Repositories
# Ce1O7P2   [CUB,CUB,cP40] (STD_PRIM doi:1
data_Ce1O7P2
_pd_phase_name Ce1O7P2
_cell_length_a  8.9198377597
_cell_length_b  8.9198377597
_cell_length_c  8.9198377597
_cell_angle_alpha  90.0000000000
_cell_angle_beta  90.0000000000
_cell_angle_gamma  90.0000000000
_symmetry_space_group_name_H-M  'P1'
_symmetry_Int_Tables_Number  1
loop_
_symmetry_equiv_pos_site_id
_symmetry_equiv_pos_as_xyz
  1  x,y,z
loop_
 _atom_site_label
 _atom_site_occupancy
 _atom_site_fract_x
 _atom_site_fract_y
 _atom_site_fract_z
 _atom_site_thermal_displace_type
 _atom_site_B_iso_or_equiv
 _atom_site_type_symbol
Ce1 1.0000000000 0.0000000000 0.0000000000 0.0000000000  Biso 1.0 Ce
Ce2 1.0000000000 0.5000000000 0.0000000000 0.5000000000  Biso 1.0 Ce
Ce3 1.0000000000 0.0000000000 0.5000000000 0.5000000000  Biso 1.0 Ce
Ce4 1.0000000000 0.5000000000 0.5000000000 0.0000000000  Biso 1.0 Ce
O5 1.0000000000 0.5570986419 0.7646622962 0.4286331513  Biso 1.0 O
O6 1.0000000000 0.9429013581 0.2353377038 0.9286331513  Biso 1.0 O
O7 1.0000000000 0.4429013581 0.2646622962 0.0713668487  Biso 1.0 O
O8 1.0000000000 0.0570986419 0.7353377038 0.5713668487  Biso 1.0 O
O9 1.0000000000 0.5713668487 0.5570986419 0.2353377038  Biso 1.0 O
O10 1.0000000000 0.0713668487 0.9429013581 0.7646622962  Biso 1.0 O
O11 1.0000000000 0.9286331513 0.4429013581 0.7353377038  Biso 1.0 O
O12 1.0000000000 0.4286331513 0.0570986419 0.2646622962  Biso 1.0 O
O13 1.0000000000 0.7646622962 0.5713668487 0.4429013581  Biso 1.0 O
O14 1.0000000000 0.2353377038 0.0713668487 0.0570986419  Biso 1.0 O
O15 1.0000000000 0.2646622962 0.9286331513 0.5570986419  Biso 1.0 O
O16 1.0000000000 0.7353377038 0.4286331513 0.9429013581  Biso 1.0 O
O17 1.0000000000 0.4429013581 0.2353377038 0.5713668487  Biso 1.0 O
O18 1.0000000000 0.0570986419 0.7646622962 0.0713668487  Biso 1.0 O
O19 1.0000000000 0.5570986419 0.7353377038 0.9286331513  Biso 1.0 O
O20 1.0000000000 0.9429013581 0.2646622962 0.4286331513  Biso 1.0 O
O21 1.0000000000 0.4286331513 0.4429013581 0.7646622962  Biso 1.0 O
O22 1.0000000000 0.9286331513 0.0570986419 0.2353377038  Biso 1.0 O
O23 1.0000000000 0.0713668487 0.5570986419 0.2646622962  Biso 1.0 O
O24 1.0000000000 0.5713668487 0.9429013581 0.7353377038  Biso 1.0 O
O25 1.0000000000 0.2353377038 0.4286331513 0.5570986419  Biso 1.0 O
O26 1.0000000000 0.7646622962 0.9286331513 0.9429013581  Biso 1.0 O
O27 1.0000000000 0.7353377038 0.0713668487 0.4429013581  Biso 1.0 O
O28 1.0000000000 0.2646622962 0.5713668487 0.0570986419  Biso 1.0 O
O29 1.0000000000 0.5000000000 0.5000000000 0.5000000000  Biso 1.0 O
O30 1.0000000000 0.0000000000 0.5000000000 0.0000000000  Biso 1.0 O
O31 1.0000000000 0.5000000000 0.0000000000 0.0000000000  Biso 1.0 O
O32 1.0000000000 0.0000000000 0.0000000000 0.5000000000  Biso 1.0 O
P33 1.0000000000 0.6026277926 0.6026277926 0.3973722074  Biso 1.0 P
P34 1.0000000000 0.8973722074 0.3973722074 0.8973722074  Biso 1.0 P
P35 1.0000000000 0.3973722074 0.1026277926 0.1026277926  Biso 1.0 P
P36 1.0000000000 0.1026277926 0.8973722074 0.6026277926  Biso 1.0 P
P37 1.0000000000 0.3973722074 0.3973722074 0.6026277926  Biso 1.0 P
P38 1.0000000000 0.1026277926 0.6026277926 0.1026277926  Biso 1.0 P
P39 1.0000000000 0.6026277926 0.8973722074 0.8973722074  Biso 1.0 P
P40 1.0000000000 0.8973722074 0.1026277926 0.3973722074  Biso 1.0 P
