# AFLOW.org Repositories
# Ce1P12Ru4   [BCC,BCC,cI34] (STD_PRIM doi
data_Ce1P12Ru4
_pd_phase_name Ce1P12Ru4
_cell_length_a  7.0014327276
_cell_length_b  7.0014327276
_cell_length_c  7.0014327276
_cell_angle_alpha  109.4712206345
_cell_angle_beta  109.4712206345
_cell_angle_gamma  109.4712206345
_symmetry_space_group_name_H-M  'P1'
_symmetry_Int_Tables_Number  1
loop_
_symmetry_equiv_pos_site_id
_symmetry_equiv_pos_as_xyz
  1  x,y,z
loop_
 _atom_site_label
 _atom_site_occupancy
 _atom_site_fract_x
 _atom_site_fract_y
 _atom_site_fract_z
 _atom_site_thermal_displace_type
 _atom_site_B_iso_or_equiv
 _atom_site_type_symbol
Ce1 1.0000000000 0.0000000000 0.0000000000 0.0000000000  Biso 1.0 Ce
P2 1.0000000000 0.6425395196 0.7856935653 0.1431540457  Biso 1.0 P
P3 1.0000000000 0.3574604804 0.5006145261 0.1431540457  Biso 1.0 P
P4 1.0000000000 0.6425395196 0.4993854739 0.8568459543  Biso 1.0 P
P5 1.0000000000 0.3574604804 0.2143064347 0.8568459543  Biso 1.0 P
P6 1.0000000000 0.8568459543 0.3574604804 0.2143064347  Biso 1.0 P
P7 1.0000000000 0.8568459543 0.6425395196 0.4993854739  Biso 1.0 P
P8 1.0000000000 0.1431540457 0.3574604804 0.5006145261  Biso 1.0 P
P9 1.0000000000 0.1431540457 0.6425395196 0.7856935653  Biso 1.0 P
P10 1.0000000000 0.4993854739 0.8568459543 0.6425395196  Biso 1.0 P
P11 1.0000000000 0.2143064347 0.8568459543 0.3574604804  Biso 1.0 P
P12 1.0000000000 0.7856935653 0.1431540457 0.6425395196  Biso 1.0 P
P13 1.0000000000 0.5006145261 0.1431540457 0.3574604804  Biso 1.0 P
Ru14 1.0000000000 0.5000000000 0.0000000000 0.0000000000  Biso 1.0 Ru
Ru15 1.0000000000 0.5000000000 0.5000000000 0.5000000000  Biso 1.0 Ru
Ru16 1.0000000000 0.0000000000 0.5000000000 0.0000000000  Biso 1.0 Ru
Ru17 1.0000000000 0.0000000000 0.0000000000 0.5000000000  Biso 1.0 Ru
