# AFLOW.org Repositories
# Ce1Rh1   [ORCC,ORCC,oS8] (STD_PRIM doi:1
data_Ce1Rh1
_pd_phase_name Ce1Rh1
_cell_length_a  5.9401454248
_cell_length_b  5.9401454248
_cell_length_c  4.0660776444
_cell_angle_alpha  90.0000000000
_cell_angle_beta  90.0000000000
_cell_angle_gamma  142.4399106720
_symmetry_space_group_name_H-M  'P1'
_symmetry_Int_Tables_Number  1
loop_
_symmetry_equiv_pos_site_id
_symmetry_equiv_pos_as_xyz
  1  x,y,z
loop_
 _atom_site_label
 _atom_site_occupancy
 _atom_site_fract_x
 _atom_site_fract_y
 _atom_site_fract_z
 _atom_site_thermal_displace_type
 _atom_site_B_iso_or_equiv
 _atom_site_type_symbol
Ce1 1.0000000000 0.8625409284 0.1374590716 0.7500000000  Biso 1.0 Ce
Ce2 1.0000000000 0.1374590716 0.8625409284 0.2500000000  Biso 1.0 Ce
Rh3 1.0000000000 0.5982407904 0.4017592096 0.7500000000  Biso 1.0 Rh
Rh4 1.0000000000 0.4017592096 0.5982407904 0.2500000000  Biso 1.0 Rh
