# AFLOW.org Repositories
# Ce3S4   [BCC,BCC,cI28] (STD_PRIM doi:10.
data_Ce3S4
_pd_phase_name Ce3S4
_cell_length_a  7.2991426709
_cell_length_b  7.2991426709
_cell_length_c  7.2991426709
_cell_angle_alpha  109.4712206345
_cell_angle_beta  109.4712206345
_cell_angle_gamma  109.4712206345
_symmetry_space_group_name_H-M  'P1'
_symmetry_Int_Tables_Number  1
loop_
_symmetry_equiv_pos_site_id
_symmetry_equiv_pos_as_xyz
  1  x,y,z
loop_
 _atom_site_label
 _atom_site_occupancy
 _atom_site_fract_x
 _atom_site_fract_y
 _atom_site_fract_z
 _atom_site_thermal_displace_type
 _atom_site_B_iso_or_equiv
 _atom_site_type_symbol
Ce1 1.0000000000 0.1250000000 0.3750000000 0.7500000000  Biso 1.0 Ce
Ce2 1.0000000000 0.3750000000 0.1250000000 0.2500000000  Biso 1.0 Ce
Ce3 1.0000000000 0.2500000000 0.8750000000 0.6250000000  Biso 1.0 Ce
Ce4 1.0000000000 0.7500000000 0.6250000000 0.8750000000  Biso 1.0 Ce
Ce5 1.0000000000 0.6250000000 0.7500000000 0.3750000000  Biso 1.0 Ce
Ce6 1.0000000000 0.8750000000 0.2500000000 0.1250000000  Biso 1.0 Ce
S7 1.0000000000 0.0000000000 0.0000000000 0.8495091182  Biso 1.0 S
S8 1.0000000000 0.8495091182 0.5000000000 0.5000000000  Biso 1.0 S
S9 1.0000000000 0.5000000000 0.3495091182 0.0000000000  Biso 1.0 S
S10 1.0000000000 0.6504908818 0.1504908818 0.6504908818  Biso 1.0 S
S11 1.0000000000 0.0000000000 0.0000000000 0.3495091182  Biso 1.0 S
S12 1.0000000000 0.3495091182 0.5000000000 0.5000000000  Biso 1.0 S
S13 1.0000000000 0.1504908818 0.6504908818 0.1504908818  Biso 1.0 S
S14 1.0000000000 0.5000000000 0.8495091182 0.0000000000  Biso 1.0 S
