# AFLOW.org Repositories
# Cl1Cu1   [CUB,CUB,cP16] (STD_PRIM doi:10
data_Cl1Cu1
_pd_phase_name Cl1Cu1
_cell_length_a  6.6049211725
_cell_length_b  6.6049211725
_cell_length_c  6.6049211725
_cell_angle_alpha  90.0000000000
_cell_angle_beta  90.0000000000
_cell_angle_gamma  90.0000000000
_symmetry_space_group_name_H-M  'P1'
_symmetry_Int_Tables_Number  1
loop_
_symmetry_equiv_pos_site_id
_symmetry_equiv_pos_as_xyz
  1  x,y,z
loop_
 _atom_site_label
 _atom_site_occupancy
 _atom_site_fract_x
 _atom_site_fract_y
 _atom_site_fract_z
 _atom_site_thermal_displace_type
 _atom_site_B_iso_or_equiv
 _atom_site_type_symbol
Cl1 1.0000000000 0.8474159245 0.8474159245 0.1525840755  Biso 1.0 Cl
Cl2 1.0000000000 0.6525840755 0.1525840755 0.6525840755  Biso 1.0 Cl
Cl3 1.0000000000 0.1525840755 0.3474159245 0.3474159245  Biso 1.0 Cl
Cl4 1.0000000000 0.3474159245 0.6525840755 0.8474159245  Biso 1.0 Cl
Cl5 1.0000000000 0.1525840755 0.1525840755 0.8474159245  Biso 1.0 Cl
Cl6 1.0000000000 0.3474159245 0.8474159245 0.3474159245  Biso 1.0 Cl
Cl7 1.0000000000 0.8474159245 0.6525840755 0.6525840755  Biso 1.0 Cl
Cl8 1.0000000000 0.6525840755 0.3474159245 0.1525840755  Biso 1.0 Cl
Cu9 1.0000000000 0.3709166936 0.3709166936 0.6290833064  Biso 1.0 Cu
Cu10 1.0000000000 0.1290833064 0.6290833064 0.1290833064  Biso 1.0 Cu
Cu11 1.0000000000 0.6290833064 0.8709166936 0.8709166936  Biso 1.0 Cu
Cu12 1.0000000000 0.8709166936 0.1290833064 0.3709166936  Biso 1.0 Cu
Cu13 1.0000000000 0.6290833064 0.6290833064 0.3709166936  Biso 1.0 Cu
Cu14 1.0000000000 0.8709166936 0.3709166936 0.8709166936  Biso 1.0 Cu
Cu15 1.0000000000 0.3709166936 0.1290833064 0.1290833064  Biso 1.0 Cu
Cu16 1.0000000000 0.1290833064 0.8709166936 0.6290833064  Biso 1.0 Cu
