# AFLOW.org Repositories
# Cl1La5Sn3   [HEX,HEX,hP18] (STD_PRIM doi
data_Cl1La5Sn3
_pd_phase_name Cl1La5Sn3
_cell_length_a  9.7378983416
_cell_length_b  9.7378983416
_cell_length_c  6.9985453359
_cell_angle_alpha  90.0000000000
_cell_angle_beta  90.0000000000
_cell_angle_gamma  120.0000000000
_symmetry_space_group_name_H-M  'P1'
_symmetry_Int_Tables_Number  1
loop_
_symmetry_equiv_pos_site_id
_symmetry_equiv_pos_as_xyz
  1  x,y,z
loop_
 _atom_site_label
 _atom_site_occupancy
 _atom_site_fract_x
 _atom_site_fract_y
 _atom_site_fract_z
 _atom_site_thermal_displace_type
 _atom_site_B_iso_or_equiv
 _atom_site_type_symbol
Cl1 1.0000000000 0.0000000000 0.0000000000 0.0000000000  Biso 1.0 Cl
Cl2 1.0000000000 0.0000000000 0.0000000000 0.5000000000  Biso 1.0 Cl
La3 1.0000000000 0.0000000000 0.7392684042 0.2500000000  Biso 1.0 La
La4 1.0000000000 0.2607315958 0.2607315958 0.2500000000  Biso 1.0 La
La5 1.0000000000 0.7392558025 0.0000000000 0.2500000000  Biso 1.0 La
La6 1.0000000000 0.0000000000 0.2607315958 0.7500000000  Biso 1.0 La
La7 1.0000000000 0.7392684042 0.7392684042 0.7500000000  Biso 1.0 La
La8 1.0000000000 0.2607441975 0.0000000000 0.7500000000  Biso 1.0 La
La9 1.0000000000 0.6666817089 0.3333634177 0.0000000000  Biso 1.0 La
La10 1.0000000000 0.3333182911 0.6666365823 0.5000000000  Biso 1.0 La
La11 1.0000000000 0.3333182911 0.6666365823 0.0000000000  Biso 1.0 La
La12 1.0000000000 0.6666817089 0.3333634177 0.5000000000  Biso 1.0 La
Sn13 1.0000000000 0.3875845417 0.0000000000 0.2500000000  Biso 1.0 Sn
Sn14 1.0000000000 0.0000000000 0.3875750713 0.2500000000  Biso 1.0 Sn
Sn15 1.0000000000 0.6124249287 0.6124249287 0.2500000000  Biso 1.0 Sn
Sn16 1.0000000000 0.6124154583 0.0000000000 0.7500000000  Biso 1.0 Sn
Sn17 1.0000000000 0.0000000000 0.6124249287 0.7500000000  Biso 1.0 Sn
Sn18 1.0000000000 0.3875750713 0.3875750713 0.7500000000  Biso 1.0 Sn
