# AFLOW.org Repositories
# Cl1La1Te1   [ORC,ORC,oP12] (STD_PRIM doi
data_Cl1La1Te1
_pd_phase_name Cl1La1Te1
_cell_length_a  4.5524068421
_cell_length_b  8.0659643624
_cell_length_c  9.5614089344
_cell_angle_alpha  90.0000000000
_cell_angle_beta  90.0000000000
_cell_angle_gamma  90.0000000000
_symmetry_space_group_name_H-M  'P1'
_symmetry_Int_Tables_Number  1
loop_
_symmetry_equiv_pos_site_id
_symmetry_equiv_pos_as_xyz
  1  x,y,z
loop_
 _atom_site_label
 _atom_site_occupancy
 _atom_site_fract_x
 _atom_site_fract_y
 _atom_site_fract_z
 _atom_site_thermal_displace_type
 _atom_site_B_iso_or_equiv
 _atom_site_type_symbol
Cl1 1.0000000000 0.2500000000 0.8647464944 0.5600141284  Biso 1.0 Cl
Cl2 1.0000000000 0.7500000000 0.6352535056 0.0600141284  Biso 1.0 Cl
Cl3 1.0000000000 0.7500000000 0.1352535056 0.4399858716  Biso 1.0 Cl
Cl4 1.0000000000 0.2500000000 0.3647464944 0.9399858716  Biso 1.0 Cl
La5 1.0000000000 0.2500000000 0.2387613700 0.6319955936  Biso 1.0 La
La6 1.0000000000 0.7500000000 0.2612386300 0.1319955936  Biso 1.0 La
La7 1.0000000000 0.7500000000 0.7612386300 0.3680044064  Biso 1.0 La
La8 1.0000000000 0.2500000000 0.7387613700 0.8680044064  Biso 1.0 La
Te9 1.0000000000 0.2500000000 0.4607989124 0.3329191849  Biso 1.0 Te
Te10 1.0000000000 0.7500000000 0.0392010876 0.8329191849  Biso 1.0 Te
Te11 1.0000000000 0.7500000000 0.5392010876 0.6670808151  Biso 1.0 Te
Te12 1.0000000000 0.2500000000 0.9607989124 0.1670808151  Biso 1.0 Te
