# AFLOW.org Repositories
# Cl4Hg3O1   [CUB,CUB,cP32] (STD_PRIM doi:
data_Cl4Hg3O1
_pd_phase_name Cl4Hg3O1
_cell_length_a  9.5573906275
_cell_length_b  9.5573906275
_cell_length_c  9.5573906275
_cell_angle_alpha  90.0000000000
_cell_angle_beta  90.0000000000
_cell_angle_gamma  90.0000000000
_symmetry_space_group_name_H-M  'P1'
_symmetry_Int_Tables_Number  1
loop_
_symmetry_equiv_pos_site_id
_symmetry_equiv_pos_as_xyz
  1  x,y,z
loop_
 _atom_site_label
 _atom_site_occupancy
 _atom_site_fract_x
 _atom_site_fract_y
 _atom_site_fract_z
 _atom_site_thermal_displace_type
 _atom_site_B_iso_or_equiv
 _atom_site_type_symbol
Cl1 1.0000000000 0.6944784083 0.9696583234 0.3409655569  Biso 1.0 Cl
Cl2 1.0000000000 0.8055215917 0.0303416766 0.8409655569  Biso 1.0 Cl
Cl3 1.0000000000 0.3055215917 0.4696583234 0.1590344431  Biso 1.0 Cl
Cl4 1.0000000000 0.1944784083 0.5303416766 0.6590344431  Biso 1.0 Cl
Cl5 1.0000000000 0.6590344431 0.6944784083 0.0303416766  Biso 1.0 Cl
Cl6 1.0000000000 0.1590344431 0.8055215917 0.9696583234  Biso 1.0 Cl
Cl7 1.0000000000 0.8409655569 0.3055215917 0.5303416766  Biso 1.0 Cl
Cl8 1.0000000000 0.3409655569 0.1944784083 0.4696583234  Biso 1.0 Cl
Cl9 1.0000000000 0.9696583234 0.6590344431 0.3055215917  Biso 1.0 Cl
Cl10 1.0000000000 0.0303416766 0.1590344431 0.1944784083  Biso 1.0 Cl
Cl11 1.0000000000 0.4696583234 0.8409655569 0.6944784083  Biso 1.0 Cl
Cl12 1.0000000000 0.5303416766 0.3409655569 0.8055215917  Biso 1.0 Cl
Cl13 1.0000000000 0.5716795442 0.5716795442 0.4283204558  Biso 1.0 Cl
Cl14 1.0000000000 0.9283204558 0.4283204558 0.9283204558  Biso 1.0 Cl
Cl15 1.0000000000 0.4283204558 0.0716795442 0.0716795442  Biso 1.0 Cl
Cl16 1.0000000000 0.0716795442 0.9283204558 0.5716795442  Biso 1.0 Cl
Hg17 1.0000000000 0.7690247133 0.8169059321 0.5166070982  Biso 1.0 Hg
Hg18 1.0000000000 0.7309752867 0.1830940679 0.0166070982  Biso 1.0 Hg
Hg19 1.0000000000 0.2309752867 0.3169059321 0.9833929018  Biso 1.0 Hg
Hg20 1.0000000000 0.2690247133 0.6830940679 0.4833929018  Biso 1.0 Hg
Hg21 1.0000000000 0.4833929018 0.7690247133 0.1830940679  Biso 1.0 Hg
Hg22 1.0000000000 0.9833929018 0.7309752867 0.8169059321  Biso 1.0 Hg
Hg23 1.0000000000 0.0166070982 0.2309752867 0.6830940679  Biso 1.0 Hg
Hg24 1.0000000000 0.5166070982 0.2690247133 0.3169059321  Biso 1.0 Hg
Hg25 1.0000000000 0.8169059321 0.4833929018 0.2309752867  Biso 1.0 Hg
Hg26 1.0000000000 0.1830940679 0.9833929018 0.2690247133  Biso 1.0 Hg
Hg27 1.0000000000 0.3169059321 0.0166070982 0.7690247133  Biso 1.0 Hg
Hg28 1.0000000000 0.6830940679 0.5166070982 0.7309752867  Biso 1.0 Hg
O29 1.0000000000 0.1780247692 0.1780247692 0.8219752308  Biso 1.0 O
O30 1.0000000000 0.3219752308 0.8219752308 0.3219752308  Biso 1.0 O
O31 1.0000000000 0.8219752308 0.6780247692 0.6780247692  Biso 1.0 O
O32 1.0000000000 0.6780247692 0.3219752308 0.1780247692  Biso 1.0 O
