# AFLOW.org Repositories
# Cl4Mg1Na2   [ORC,ORC,oP14] (STD_PRIM doi
data_Cl4Mg1Na2
_pd_phase_name Cl4Mg1Na2
_cell_length_a  3.8430100225
_cell_length_b  6.9573135240
_cell_length_c  12.0004331727
_cell_angle_alpha  90.0000000000
_cell_angle_beta  90.0000000000
_cell_angle_gamma  90.0000000000
_symmetry_space_group_name_H-M  'P1'
_symmetry_Int_Tables_Number  1
loop_
_symmetry_equiv_pos_site_id
_symmetry_equiv_pos_as_xyz
  1  x,y,z
loop_
 _atom_site_label
 _atom_site_occupancy
 _atom_site_fract_x
 _atom_site_fract_y
 _atom_site_fract_z
 _atom_site_thermal_displace_type
 _atom_site_B_iso_or_equiv
 _atom_site_type_symbol
Cl1 1.0000000000 0.0000000000 0.1192941850 0.8048050918  Biso 1.0 Cl
Cl2 1.0000000000 0.0000000000 0.8807058150 0.1951949082  Biso 1.0 Cl
Cl3 1.0000000000 0.0000000000 0.3807058150 0.3048050918  Biso 1.0 Cl
Cl4 1.0000000000 0.0000000000 0.6192941850 0.6951949082  Biso 1.0 Cl
Cl5 1.0000000000 0.5000000000 0.2360262681 0.0429715185  Biso 1.0 Cl
Cl6 1.0000000000 0.5000000000 0.7639737319 0.9570284815  Biso 1.0 Cl
Cl7 1.0000000000 0.5000000000 0.2639737319 0.5429715185  Biso 1.0 Cl
Cl8 1.0000000000 0.5000000000 0.7360262681 0.4570284815  Biso 1.0 Cl
Mg9 1.0000000000 0.0000000000 0.0000000000 0.0000000000  Biso 1.0 Mg
Mg10 1.0000000000 0.0000000000 0.5000000000 0.5000000000  Biso 1.0 Mg
Na11 1.0000000000 0.5000000000 0.4132692164 0.8177542828  Biso 1.0 Na
Na12 1.0000000000 0.5000000000 0.5867307836 0.1822457172  Biso 1.0 Na
Na13 1.0000000000 0.5000000000 0.0867307836 0.3177542828  Biso 1.0 Na
Na14 1.0000000000 0.5000000000 0.9132692164 0.6822457172  Biso 1.0 Na
