# AFLOW.org Repositories
# Cl4Pd1Tl2   [TET,TET,tP7] (STD_PRIM doi:
data_Cl4Pd1Tl2
_pd_phase_name Cl4Pd1Tl2
_cell_length_a  7.2366856849
_cell_length_b  7.2366856849
_cell_length_c  4.2921898732
_cell_angle_alpha  90.0000000000
_cell_angle_beta  90.0000000000
_cell_angle_gamma  90.0000000000
_symmetry_space_group_name_H-M  'P1'
_symmetry_Int_Tables_Number  1
loop_
_symmetry_equiv_pos_site_id
_symmetry_equiv_pos_as_xyz
  1  x,y,z
loop_
 _atom_site_label
 _atom_site_occupancy
 _atom_site_fract_x
 _atom_site_fract_y
 _atom_site_fract_z
 _atom_site_thermal_displace_type
 _atom_site_B_iso_or_equiv
 _atom_site_type_symbol
Cl1 1.0000000000 0.2287657385 0.2287657385 0.0000000000  Biso 1.0 Cl
Cl2 1.0000000000 0.7712342615 0.7712342615 0.0000000000  Biso 1.0 Cl
Cl3 1.0000000000 0.7712342615 0.2287657385 0.0000000000  Biso 1.0 Cl
Cl4 1.0000000000 0.2287657385 0.7712342615 0.0000000000  Biso 1.0 Cl
Pd5 1.0000000000 0.0000000000 0.0000000000 0.0000000000  Biso 1.0 Pd
Tl6 1.0000000000 0.0000000000 0.5000000000 0.5000000000  Biso 1.0 Tl
Tl7 1.0000000000 0.5000000000 0.0000000000 0.5000000000  Biso 1.0 Tl
