# AFLOW.org Repositories
# Cl4Th1   [BCT,BCT1,tI20] (STD_PRIM doi:1
data_Cl4Th1
_pd_phase_name Cl4Th1
_cell_length_a  7.3183748174
_cell_length_b  7.3183748174
_cell_length_c  7.3183748174
_cell_angle_alpha  106.3746663973
_cell_angle_beta  106.3746663973
_cell_angle_gamma  115.8594778824
_symmetry_space_group_name_H-M  'P1'
_symmetry_Int_Tables_Number  1
loop_
_symmetry_equiv_pos_site_id
_symmetry_equiv_pos_as_xyz
  1  x,y,z
loop_
 _atom_site_label
 _atom_site_occupancy
 _atom_site_fract_x
 _atom_site_fract_y
 _atom_site_fract_z
 _atom_site_thermal_displace_type
 _atom_site_B_iso_or_equiv
 _atom_site_type_symbol
Cl1 1.0000000000 0.6311032868 0.1964510063 0.4346522805  Biso 1.0 Cl
Cl2 1.0000000000 0.2617987259 0.1964510063 0.0653477195  Biso 1.0 Cl
Cl3 1.0000000000 0.1964510063 0.6311032868 0.9346522805  Biso 1.0 Cl
Cl4 1.0000000000 0.1964510063 0.2617987259 0.5653477195  Biso 1.0 Cl
Cl5 1.0000000000 0.7382012741 0.8035489937 0.9346522805  Biso 1.0 Cl
Cl6 1.0000000000 0.3688967132 0.8035489937 0.5653477195  Biso 1.0 Cl
Cl7 1.0000000000 0.8035489937 0.3688967132 0.0653477195  Biso 1.0 Cl
Cl8 1.0000000000 0.8035489937 0.7382012741 0.4346522805  Biso 1.0 Cl
Th9 1.0000000000 0.1250000000 0.8750000000 0.2500000000  Biso 1.0 Th
Th10 1.0000000000 0.8750000000 0.1250000000 0.7500000000  Biso 1.0 Th
