# AFLOW.org Repositories
# Cl6Cs2Pb1   [CUB,CUB,cP36] (STD_CONV doi
data_Cl6Cs2Pb1
_pd_phase_name Cl6Cs2Pb1
_cell_length_a  10.8393244320
_cell_length_b  10.8393244320
_cell_length_c  10.8393244320
_cell_angle_alpha  90.0000000000
_cell_angle_beta  90.0000000000
_cell_angle_gamma  90.0000000000
_symmetry_space_group_name_H-M  'P1'
_symmetry_Int_Tables_Number  1
loop_
_symmetry_equiv_pos_site_id
_symmetry_equiv_pos_as_xyz
  1  x,y,z
loop_
 _atom_site_label
 _atom_site_occupancy
 _atom_site_fract_x
 _atom_site_fract_y
 _atom_site_fract_z
 _atom_site_thermal_displace_type
 _atom_site_B_iso_or_equiv
 _atom_site_type_symbol
Cl1 1.0000000000 0.5000000000 0.0000000000 0.2625781082  Biso 1.0 Cl
Cl2 1.0000000000 0.0000000000 0.5000000000 0.2625781082  Biso 1.0 Cl
Cl3 1.0000000000 0.0000000000 0.0000000000 0.7625781082  Biso 1.0 Cl
Cl4 1.0000000000 0.5000000000 0.5000000000 0.7625781082  Biso 1.0 Cl
Cl5 1.0000000000 0.0000000000 0.0000000000 0.2374218918  Biso 1.0 Cl
Cl6 1.0000000000 0.5000000000 0.5000000000 0.2374218918  Biso 1.0 Cl
Cl7 1.0000000000 0.5000000000 0.0000000000 0.7374218918  Biso 1.0 Cl
Cl8 1.0000000000 0.0000000000 0.5000000000 0.7374218918  Biso 1.0 Cl
Cl9 1.0000000000 0.7625781082 0.0000000000 0.0000000000  Biso 1.0 Cl
Cl10 1.0000000000 0.2625781082 0.5000000000 0.0000000000  Biso 1.0 Cl
Cl11 1.0000000000 0.2625781082 0.0000000000 0.5000000000  Biso 1.0 Cl
Cl12 1.0000000000 0.7625781082 0.5000000000 0.5000000000  Biso 1.0 Cl
Cl13 1.0000000000 0.2374218918 0.0000000000 0.0000000000  Biso 1.0 Cl
Cl14 1.0000000000 0.7374218918 0.5000000000 0.0000000000  Biso 1.0 Cl
Cl15 1.0000000000 0.7374218918 0.0000000000 0.5000000000  Biso 1.0 Cl
Cl16 1.0000000000 0.2374218918 0.5000000000 0.5000000000  Biso 1.0 Cl
Cl17 1.0000000000 0.0000000000 0.2374218918 0.0000000000  Biso 1.0 Cl
Cl18 1.0000000000 0.5000000000 0.7374218918 0.0000000000  Biso 1.0 Cl
Cl19 1.0000000000 0.5000000000 0.2374218918 0.5000000000  Biso 1.0 Cl
Cl20 1.0000000000 0.0000000000 0.7374218918 0.5000000000  Biso 1.0 Cl
Cl21 1.0000000000 0.5000000000 0.2625781082 0.0000000000  Biso 1.0 Cl
Cl22 1.0000000000 0.0000000000 0.7625781082 0.0000000000  Biso 1.0 Cl
Cl23 1.0000000000 0.0000000000 0.2625781082 0.5000000000  Biso 1.0 Cl
Cl24 1.0000000000 0.5000000000 0.7625781082 0.5000000000  Biso 1.0 Cl
Cs25 1.0000000000 0.2500000000 0.2500000000 0.2500000000  Biso 1.0 Cs
Cs26 1.0000000000 0.7500000000 0.7500000000 0.2500000000  Biso 1.0 Cs
Cs27 1.0000000000 0.7500000000 0.2500000000 0.7500000000  Biso 1.0 Cs
Cs28 1.0000000000 0.2500000000 0.7500000000 0.7500000000  Biso 1.0 Cs
Cs29 1.0000000000 0.7500000000 0.2500000000 0.2500000000  Biso 1.0 Cs
Cs30 1.0000000000 0.2500000000 0.7500000000 0.2500000000  Biso 1.0 Cs
Cs31 1.0000000000 0.2500000000 0.2500000000 0.7500000000  Biso 1.0 Cs
Cs32 1.0000000000 0.7500000000 0.7500000000 0.7500000000  Biso 1.0 Cs
Pb33 1.0000000000 0.0000000000 0.0000000000 0.0000000000  Biso 1.0 Pb
Pb34 1.0000000000 0.5000000000 0.5000000000 0.0000000000  Biso 1.0 Pb
Pb35 1.0000000000 0.5000000000 0.0000000000 0.5000000000  Biso 1.0 Pb
Pb36 1.0000000000 0.0000000000 0.5000000000 0.5000000000  Biso 1.0 Pb
