# AFLOW.org Repositories
# Cl6Rb2Te1   [FCC,FCC,cF36] (STD_PRIM doi
data_Cl6Rb2Te1
_pd_phase_name Cl6Rb2Te1
_cell_length_a  7.4803754023
_cell_length_b  7.4803754023
_cell_length_c  7.4803754023
_cell_angle_alpha  60.0000000000
_cell_angle_beta  60.0000000000
_cell_angle_gamma  60.0000000000
_symmetry_space_group_name_H-M  'P1'
_symmetry_Int_Tables_Number  1
loop_
_symmetry_equiv_pos_site_id
_symmetry_equiv_pos_as_xyz
  1  x,y,z
loop_
 _atom_site_label
 _atom_site_occupancy
 _atom_site_fract_x
 _atom_site_fract_y
 _atom_site_fract_z
 _atom_site_thermal_displace_type
 _atom_site_B_iso_or_equiv
 _atom_site_type_symbol
Cl1 1.0000000000 0.7577883882 0.2422116118 0.2422116118  Biso 1.0 Cl
Cl2 1.0000000000 0.2422116118 0.7577883882 0.7577883882  Biso 1.0 Cl
Cl3 1.0000000000 0.7577883882 0.2422116118 0.7577883882  Biso 1.0 Cl
Cl4 1.0000000000 0.2422116118 0.7577883882 0.2422116118  Biso 1.0 Cl
Cl5 1.0000000000 0.7577883882 0.7577883882 0.2422116118  Biso 1.0 Cl
Cl6 1.0000000000 0.2422116118 0.2422116118 0.7577883882  Biso 1.0 Cl
Rb7 1.0000000000 0.2500000000 0.2500000000 0.2500000000  Biso 1.0 Rb
Rb8 1.0000000000 0.7500000000 0.7500000000 0.7500000000  Biso 1.0 Rb
Te9 1.0000000000 0.0000000000 0.0000000000 0.0000000000  Biso 1.0 Te
