# AFLOW.org Repositories
# Co1Dy1Sn1   [ORC,ORC,oP12] (STD_PRIM doi
data_Co1Dy1Sn1
_pd_phase_name Co1Dy1Sn1
_cell_length_a  4.6449463216
_cell_length_b  7.4578802266
_cell_length_c  7.8196291680
_cell_angle_alpha  90.0000000000
_cell_angle_beta  90.0000000000
_cell_angle_gamma  90.0000000000
_symmetry_space_group_name_H-M  'P1'
_symmetry_Int_Tables_Number  1
loop_
_symmetry_equiv_pos_site_id
_symmetry_equiv_pos_as_xyz
  1  x,y,z
loop_
 _atom_site_label
 _atom_site_occupancy
 _atom_site_fract_x
 _atom_site_fract_y
 _atom_site_fract_z
 _atom_site_thermal_displace_type
 _atom_site_B_iso_or_equiv
 _atom_site_type_symbol
Co1 1.0000000000 0.2500000000 0.1574096419 0.4292990831  Biso 1.0 Co
Co2 1.0000000000 0.7500000000 0.3425903581 0.9292990831  Biso 1.0 Co
Co3 1.0000000000 0.7500000000 0.8425903581 0.5707009169  Biso 1.0 Co
Co4 1.0000000000 0.2500000000 0.6574096419 0.0707009169  Biso 1.0 Co
Dy5 1.0000000000 0.2500000000 0.9878963015 0.7826157849  Biso 1.0 Dy
Dy6 1.0000000000 0.7500000000 0.5121036985 0.2826157849  Biso 1.0 Dy
Dy7 1.0000000000 0.7500000000 0.0121036985 0.2173842151  Biso 1.0 Dy
Dy8 1.0000000000 0.2500000000 0.4878963015 0.7173842151  Biso 1.0 Dy
Sn9 1.0000000000 0.2500000000 0.7757941984 0.4046609509  Biso 1.0 Sn
Sn10 1.0000000000 0.7500000000 0.7242058016 0.9046609509  Biso 1.0 Sn
Sn11 1.0000000000 0.7500000000 0.2242058016 0.5953390491  Biso 1.0 Sn
Sn12 1.0000000000 0.2500000000 0.2757941984 0.0953390491  Biso 1.0 Sn
