# AFLOW.org Repositories
# Co1Er1Ge2   [ORCC,ORCC,oS16] (STD_PRIM d
data_Co1Er1Ge2
_pd_phase_name Co1Er1Ge2
_cell_length_a  8.3885850829
_cell_length_b  8.3885850829
_cell_length_c  4.1332012818
_cell_angle_alpha  90.0000000000
_cell_angle_beta  90.0000000000
_cell_angle_gamma  151.6654049934
_symmetry_space_group_name_H-M  'P1'
_symmetry_Int_Tables_Number  1
loop_
_symmetry_equiv_pos_site_id
_symmetry_equiv_pos_as_xyz
  1  x,y,z
loop_
 _atom_site_label
 _atom_site_occupancy
 _atom_site_fract_x
 _atom_site_fract_y
 _atom_site_fract_z
 _atom_site_thermal_displace_type
 _atom_site_B_iso_or_equiv
 _atom_site_type_symbol
Co1 1.0000000000 0.3173757492 0.6826242508 0.7500000000  Biso 1.0 Co
Co2 1.0000000000 0.6826242508 0.3173757492 0.2500000000  Biso 1.0 Co
Er3 1.0000000000 0.1085139952 0.8914860048 0.7500000000  Biso 1.0 Er
Er4 1.0000000000 0.8914860048 0.1085139952 0.2500000000  Biso 1.0 Er
Ge5 1.0000000000 0.4544918599 0.5455081401 0.7500000000  Biso 1.0 Ge
Ge6 1.0000000000 0.5455081401 0.4544918599 0.2500000000  Biso 1.0 Ge
Ge7 1.0000000000 0.7493276668 0.2506723332 0.7500000000  Biso 1.0 Ge
Ge8 1.0000000000 0.2506723332 0.7493276668 0.2500000000  Biso 1.0 Ge
