# AFLOW.org Repositories
# Co1Ge1Ta1   [ORC,ORC,oP12] (STD_PRIM doi
data_Co1Ge1Ta1
_pd_phase_name Co1Ge1Ta1
_cell_length_a  3.8344453473
_cell_length_b  6.4817183992
_cell_length_c  7.3407255425
_cell_angle_alpha  90.0000000000
_cell_angle_beta  90.0000000000
_cell_angle_gamma  90.0000000000
_symmetry_space_group_name_H-M  'P1'
_symmetry_Int_Tables_Number  1
loop_
_symmetry_equiv_pos_site_id
_symmetry_equiv_pos_as_xyz
  1  x,y,z
loop_
 _atom_site_label
 _atom_site_occupancy
 _atom_site_fract_x
 _atom_site_fract_y
 _atom_site_fract_z
 _atom_site_thermal_displace_type
 _atom_site_B_iso_or_equiv
 _atom_site_type_symbol
Co1 1.0000000000 0.2500000000 0.1546486560 0.5655804138  Biso 1.0 Co
Co2 1.0000000000 0.7500000000 0.3453513440 0.0655804138  Biso 1.0 Co
Co3 1.0000000000 0.7500000000 0.8453513440 0.4344195862  Biso 1.0 Co
Co4 1.0000000000 0.2500000000 0.6546486560 0.9344195862  Biso 1.0 Co
Ge5 1.0000000000 0.2500000000 0.7812541068 0.6181881124  Biso 1.0 Ge
Ge6 1.0000000000 0.7500000000 0.7187458932 0.1181881124  Biso 1.0 Ge
Ge7 1.0000000000 0.7500000000 0.2187458932 0.3818118876  Biso 1.0 Ge
Ge8 1.0000000000 0.2500000000 0.2812541068 0.8818118876  Biso 1.0 Ge
Ta9 1.0000000000 0.2500000000 0.0073732613 0.1701109207  Biso 1.0 Ta
Ta10 1.0000000000 0.7500000000 0.4926267387 0.6701109207  Biso 1.0 Ta
Ta11 1.0000000000 0.7500000000 0.9926267387 0.8298890793  Biso 1.0 Ta
Ta12 1.0000000000 0.2500000000 0.5073732613 0.3298890793  Biso 1.0 Ta
