# AFLOW.org Repositories
# Co1Ge1Ti1                               
data_Co1Ge1Ti1
_pd_phase_name Co1Ge1Ti1
_cell_length_a  6.1764094732
_cell_length_b  6.1764094732
_cell_length_c  3.7902852106
_cell_angle_alpha  90.0000000000
_cell_angle_beta  90.0000000000
_cell_angle_gamma  120.0000000000
_symmetry_space_group_name_H-M  'P1'
_symmetry_Int_Tables_Number  1
loop_
_symmetry_equiv_pos_site_id
_symmetry_equiv_pos_as_xyz
  1  x,y,z
loop_
 _atom_site_label
 _atom_site_occupancy
 _atom_site_fract_x
 _atom_site_fract_y
 _atom_site_fract_z
 _atom_site_thermal_displace_type
 _atom_site_B_iso_or_equiv
 _atom_site_type_symbol
Co1 1.0000000000 0.2400306468 0.0000000000 0.0000000000  Biso 1.0 Co
Co2 1.0000000000 0.0000000000 0.2400306468 0.0000000000  Biso 1.0 Co
Co3 1.0000000000 0.7593216479 0.7593216479 0.0000000000  Biso 1.0 Co
Ge4 1.0000000000 0.3325126721 0.6661640741 0.0000000000  Biso 1.0 Ge
Ge5 1.0000000000 0.6661640741 0.3325126721 0.0000000000  Biso 1.0 Ge
Ge6 1.0000000000 0.0010343795 0.0010343795 0.5000000000  Biso 1.0 Ge
Ti7 1.0000000000 0.5715791346 0.0000000000 0.5000000000  Biso 1.0 Ti
Ti8 1.0000000000 0.0000000000 0.5715791346 0.5000000000  Biso 1.0 Ti
Ti9 1.0000000000 0.4303673543 0.4303673543 0.5000000000  Biso 1.0 Ti
