# AFLOW.org Repositories
# Co1In2Se4   [FCC,FCC,cF56] (STD_PRIM doi
data_Co1In2Se4
_pd_phase_name Co1In2Se4
_cell_length_a  7.9600132744
_cell_length_b  7.9600132744
_cell_length_c  7.9600132744
_cell_angle_alpha  60.0000000000
_cell_angle_beta  60.0000000000
_cell_angle_gamma  60.0000000000
_symmetry_space_group_name_H-M  'P1'
_symmetry_Int_Tables_Number  1
loop_
_symmetry_equiv_pos_site_id
_symmetry_equiv_pos_as_xyz
  1  x,y,z
loop_
 _atom_site_label
 _atom_site_occupancy
 _atom_site_fract_x
 _atom_site_fract_y
 _atom_site_fract_z
 _atom_site_thermal_displace_type
 _atom_site_B_iso_or_equiv
 _atom_site_type_symbol
Co1 1.0000000000 0.3750000000 0.3750000000 0.3750000000  Biso 1.0 Co
Co2 1.0000000000 0.6250000000 0.6250000000 0.6250000000  Biso 1.0 Co
In3 1.0000000000 0.0000000000 0.0000000000 0.0000000000  Biso 1.0 In
In4 1.0000000000 0.0000000000 0.5000000000 0.0000000000  Biso 1.0 In
In5 1.0000000000 0.5000000000 0.0000000000 0.0000000000  Biso 1.0 In
In6 1.0000000000 0.0000000000 0.0000000000 0.5000000000  Biso 1.0 In
Se7 1.0000000000 0.2454973458 0.2454973458 0.2454973458  Biso 1.0 Se
Se8 1.0000000000 0.2454973458 0.7635079626 0.2454973458  Biso 1.0 Se
Se9 1.0000000000 0.7635079626 0.2454973458 0.2454973458  Biso 1.0 Se
Se10 1.0000000000 0.2454973458 0.2454973458 0.7635079626  Biso 1.0 Se
Se11 1.0000000000 0.7545026542 0.2364920374 0.7545026542  Biso 1.0 Se
Se12 1.0000000000 0.7545026542 0.7545026542 0.7545026542  Biso 1.0 Se
Se13 1.0000000000 0.2364920374 0.7545026542 0.7545026542  Biso 1.0 Se
Se14 1.0000000000 0.7545026542 0.7545026542 0.2364920374  Biso 1.0 Se
