# AFLOW.org Repositories
# Co1O3Se1   [ORC,ORC,oP20] (STD_PRIM doi:
data_Co1O3Se1
_pd_phase_name Co1O3Se1
_cell_length_a  5.0969557114
_cell_length_b  6.0100908763
_cell_length_c  7.7028793543
_cell_angle_alpha  90.0000000000
_cell_angle_beta  90.0000000000
_cell_angle_gamma  90.0000000000
_symmetry_space_group_name_H-M  'P1'
_symmetry_Int_Tables_Number  1
loop_
_symmetry_equiv_pos_site_id
_symmetry_equiv_pos_as_xyz
  1  x,y,z
loop_
 _atom_site_label
 _atom_site_occupancy
 _atom_site_fract_x
 _atom_site_fract_y
 _atom_site_fract_z
 _atom_site_thermal_displace_type
 _atom_site_B_iso_or_equiv
 _atom_site_type_symbol
Co1 1.0000000000 0.5000000000 0.0000000000 0.0000000000  Biso 1.0 Co
Co2 1.0000000000 0.0000000000 0.5000000000 0.0000000000  Biso 1.0 Co
Co3 1.0000000000 0.5000000000 0.0000000000 0.5000000000  Biso 1.0 Co
Co4 1.0000000000 0.0000000000 0.5000000000 0.5000000000  Biso 1.0 Co
O5 1.0000000000 0.6775318487 0.0709748368 0.7500000000  Biso 1.0 O
O6 1.0000000000 0.1775318487 0.4290251632 0.2500000000  Biso 1.0 O
O7 1.0000000000 0.3224681513 0.9290251632 0.2500000000  Biso 1.0 O
O8 1.0000000000 0.8224681513 0.5709748368 0.7500000000  Biso 1.0 O
O9 1.0000000000 0.1371081585 0.1841363703 0.9230533940  Biso 1.0 O
O10 1.0000000000 0.6371081585 0.3158636297 0.0769466060  Biso 1.0 O
O11 1.0000000000 0.8628918415 0.8158636297 0.4230533940  Biso 1.0 O
O12 1.0000000000 0.3628918415 0.6841363703 0.5769466060  Biso 1.0 O
O13 1.0000000000 0.8628918415 0.8158636297 0.0769466060  Biso 1.0 O
O14 1.0000000000 0.3628918415 0.6841363703 0.9230533940  Biso 1.0 O
O15 1.0000000000 0.1371081585 0.1841363703 0.5769466060  Biso 1.0 O
O16 1.0000000000 0.6371081585 0.3158636297 0.4230533940  Biso 1.0 O
Se17 1.0000000000 0.0165308910 0.0219293485 0.7500000000  Biso 1.0 Se
Se18 1.0000000000 0.5165308910 0.4780706515 0.2500000000  Biso 1.0 Se
Se19 1.0000000000 0.9834691090 0.9780706515 0.2500000000  Biso 1.0 Se
Se20 1.0000000000 0.4834691090 0.5219293485 0.7500000000  Biso 1.0 Se
