# AFLOW.org Repositories
# Co1Sn1Tb1   [ORC,ORC,oP12] (STD_PRIM doi
data_Co1Sn1Tb1
_pd_phase_name Co1Sn1Tb1
_cell_length_a  4.6569059087
_cell_length_b  7.4914604971
_cell_length_c  7.8410730638
_cell_angle_alpha  90.0000000000
_cell_angle_beta  90.0000000000
_cell_angle_gamma  90.0000000000
_symmetry_space_group_name_H-M  'P1'
_symmetry_Int_Tables_Number  1
loop_
_symmetry_equiv_pos_site_id
_symmetry_equiv_pos_as_xyz
  1  x,y,z
loop_
 _atom_site_label
 _atom_site_occupancy
 _atom_site_fract_x
 _atom_site_fract_y
 _atom_site_fract_z
 _atom_site_thermal_displace_type
 _atom_site_B_iso_or_equiv
 _atom_site_type_symbol
Co1 1.0000000000 0.2500000000 0.1582860285 0.4287447284  Biso 1.0 Co
Co2 1.0000000000 0.7500000000 0.3417139715 0.9287447284  Biso 1.0 Co
Co3 1.0000000000 0.7500000000 0.8417139715 0.5712552716  Biso 1.0 Co
Co4 1.0000000000 0.2500000000 0.6582860285 0.0712552716  Biso 1.0 Co
Sn5 1.0000000000 0.2500000000 0.7771373906 0.4049117838  Biso 1.0 Sn
Sn6 1.0000000000 0.7500000000 0.7228626094 0.9049117838  Biso 1.0 Sn
Sn7 1.0000000000 0.7500000000 0.2228626094 0.5950882162  Biso 1.0 Sn
Sn8 1.0000000000 0.2500000000 0.2771373906 0.0950882162  Biso 1.0 Sn
Tb9 1.0000000000 0.2500000000 0.9878346640 0.7830688481  Biso 1.0 Tb
Tb10 1.0000000000 0.7500000000 0.5121653360 0.2830688481  Biso 1.0 Tb
Tb11 1.0000000000 0.7500000000 0.0121653360 0.2169311519  Biso 1.0 Tb
Tb12 1.0000000000 0.2500000000 0.4878346640 0.7169311519  Biso 1.0 Tb
