# AFLOW.org Repositories
# Co1Sn1Y1   [ORC,ORC,oP12] (STD_PRIM doi:
data_Co1Sn1Y1
_pd_phase_name Co1Sn1Y1
_cell_length_a  4.4911259447
_cell_length_b  6.9639083227
_cell_length_c  7.7725705862
_cell_angle_alpha  90.0000000000
_cell_angle_beta  90.0000000000
_cell_angle_gamma  90.0000000000
_symmetry_space_group_name_H-M  'P1'
_symmetry_Int_Tables_Number  1
loop_
_symmetry_equiv_pos_site_id
_symmetry_equiv_pos_as_xyz
  1  x,y,z
loop_
 _atom_site_label
 _atom_site_occupancy
 _atom_site_fract_x
 _atom_site_fract_y
 _atom_site_fract_z
 _atom_site_thermal_displace_type
 _atom_site_B_iso_or_equiv
 _atom_site_type_symbol
Co1 1.0000000000 0.2500000000 0.2239403873 0.4064583497  Biso 1.0 Co
Co2 1.0000000000 0.7500000000 0.2760596127 0.9064583497  Biso 1.0 Co
Co3 1.0000000000 0.7500000000 0.7760596127 0.5935416503  Biso 1.0 Co
Co4 1.0000000000 0.2500000000 0.7239403873 0.0935416503  Biso 1.0 Co
Sn5 1.0000000000 0.2500000000 0.8278572056 0.4211674653  Biso 1.0 Sn
Sn6 1.0000000000 0.7500000000 0.6721427944 0.9211674653  Biso 1.0 Sn
Sn7 1.0000000000 0.7500000000 0.1721427944 0.5788325347  Biso 1.0 Sn
Sn8 1.0000000000 0.2500000000 0.3278572056 0.0788325347  Biso 1.0 Sn
Y9 1.0000000000 0.2500000000 0.9818469548 0.8102406314  Biso 1.0 Y
Y10 1.0000000000 0.7500000000 0.5181530452 0.3102406314  Biso 1.0 Y
Y11 1.0000000000 0.7500000000 0.0181530452 0.1897593686  Biso 1.0 Y
Y12 1.0000000000 0.2500000000 0.4818469548 0.6897593686  Biso 1.0 Y
