# AFLOW.org Repositories
# Co1Se2   [CUB,CUB,cP12] (STD_PRIM doi:10
data_Co1Se2
_pd_phase_name Co1Se2
_cell_length_a  5.8344592164
_cell_length_b  5.8344592164
_cell_length_c  5.8344592164
_cell_angle_alpha  90.0000000000
_cell_angle_beta  90.0000000000
_cell_angle_gamma  90.0000000000
_symmetry_space_group_name_H-M  'P1'
_symmetry_Int_Tables_Number  1
loop_
_symmetry_equiv_pos_site_id
_symmetry_equiv_pos_as_xyz
  1  x,y,z
loop_
 _atom_site_label
 _atom_site_occupancy
 _atom_site_fract_x
 _atom_site_fract_y
 _atom_site_fract_z
 _atom_site_thermal_displace_type
 _atom_site_B_iso_or_equiv
 _atom_site_type_symbol
Co1 1.0000000000 0.0000000000 0.0000000000 0.0000000000  Biso 1.0 Co
Co2 1.0000000000 0.5000000000 0.0000000000 0.5000000000  Biso 1.0 Co
Co3 1.0000000000 0.0000000000 0.5000000000 0.5000000000  Biso 1.0 Co
Co4 1.0000000000 0.5000000000 0.5000000000 0.0000000000  Biso 1.0 Co
Se5 1.0000000000 0.6269970115 0.6269970115 0.3730029885  Biso 1.0 Se
Se6 1.0000000000 0.8730029885 0.3730029885 0.8730029885  Biso 1.0 Se
Se7 1.0000000000 0.3730029885 0.1269970115 0.1269970115  Biso 1.0 Se
Se8 1.0000000000 0.1269970115 0.8730029885 0.6269970115  Biso 1.0 Se
Se9 1.0000000000 0.3730029885 0.3730029885 0.6269970115  Biso 1.0 Se
Se10 1.0000000000 0.1269970115 0.6269970115 0.1269970115  Biso 1.0 Se
Se11 1.0000000000 0.6269970115 0.8730029885 0.8730029885  Biso 1.0 Se
Se12 1.0000000000 0.8730029885 0.1269970115 0.3730029885  Biso 1.0 Se
