# AFLOW.org Repositories
# Co1V3   [CUB,CUB,cP8] (STD_PRIM doi:10.1
data_Co1V3
_pd_phase_name Co1V3
_cell_length_a  4.6672018100
_cell_length_b  4.6672018100
_cell_length_c  4.6672018100
_cell_angle_alpha  90.0000000000
_cell_angle_beta  90.0000000000
_cell_angle_gamma  90.0000000000
_symmetry_space_group_name_H-M  'P1'
_symmetry_Int_Tables_Number  1
loop_
_symmetry_equiv_pos_site_id
_symmetry_equiv_pos_as_xyz
  1  x,y,z
loop_
 _atom_site_label
 _atom_site_occupancy
 _atom_site_fract_x
 _atom_site_fract_y
 _atom_site_fract_z
 _atom_site_thermal_displace_type
 _atom_site_B_iso_or_equiv
 _atom_site_type_symbol
Co1 1.0000000000 0.0000000000 0.0000000000 0.0000000000  Biso 1.0 Co
Co2 1.0000000000 0.5000000000 0.5000000000 0.5000000000  Biso 1.0 Co
V3 1.0000000000 0.7500000000 0.0000000000 0.5000000000  Biso 1.0 V
V4 1.0000000000 0.2500000000 0.0000000000 0.5000000000  Biso 1.0 V
V5 1.0000000000 0.5000000000 0.7500000000 0.0000000000  Biso 1.0 V
V6 1.0000000000 0.5000000000 0.2500000000 0.0000000000  Biso 1.0 V
V7 1.0000000000 0.0000000000 0.5000000000 0.2500000000  Biso 1.0 V
V8 1.0000000000 0.0000000000 0.5000000000 0.7500000000  Biso 1.0 V
