# AFLOW.org Repositories
# Co1Zr2   [BCT,BCT1,tI12] (STD_PRIM doi:1
data_Co1Zr2
_pd_phase_name Co1Zr2
_cell_length_a  5.3744218405
_cell_length_b  5.3744218405
_cell_length_c  5.3744218405
_cell_angle_alpha  107.8383625217
_cell_angle_beta  107.8383625217
_cell_angle_gamma  112.7887471885
_symmetry_space_group_name_H-M  'P1'
_symmetry_Int_Tables_Number  1
loop_
_symmetry_equiv_pos_site_id
_symmetry_equiv_pos_as_xyz
  1  x,y,z
loop_
 _atom_site_label
 _atom_site_occupancy
 _atom_site_fract_x
 _atom_site_fract_y
 _atom_site_fract_z
 _atom_site_thermal_displace_type
 _atom_site_B_iso_or_equiv
 _atom_site_type_symbol
Co1 1.0000000000 0.2500000000 0.2500000000 0.0000000000  Biso 1.0 Co
Co2 1.0000000000 0.7500000000 0.7500000000 0.0000000000  Biso 1.0 Co
Zr3 1.0000000000 0.6725030584 0.1725030584 0.8450061168  Biso 1.0 Zr
Zr4 1.0000000000 0.3274969416 0.8274969416 0.1549938832  Biso 1.0 Zr
Zr5 1.0000000000 0.1725030584 0.3274969416 0.5000000000  Biso 1.0 Zr
Zr6 1.0000000000 0.8274969416 0.6725030584 0.5000000000  Biso 1.0 Zr
