# AFLOW.org Repositories
# Co2Se2Tl1   [BCT,BCT2,tI10] (STD_PRIM do
data_Co2Se2Tl1
_pd_phase_name Co2Se2Tl1
_cell_length_a  6.7989861573
_cell_length_b  6.7989861573
_cell_length_c  6.7989861573
_cell_angle_alpha  145.3233343764
_cell_angle_beta  145.3233343764
_cell_angle_gamma  49.8529433675
_symmetry_space_group_name_H-M  'P1'
_symmetry_Int_Tables_Number  1
loop_
_symmetry_equiv_pos_site_id
_symmetry_equiv_pos_as_xyz
  1  x,y,z
loop_
 _atom_site_label
 _atom_site_occupancy
 _atom_site_fract_x
 _atom_site_fract_y
 _atom_site_fract_z
 _atom_site_thermal_displace_type
 _atom_site_B_iso_or_equiv
 _atom_site_type_symbol
Co1 1.0000000000 0.2500000000 0.7500000000 0.5000000000  Biso 1.0 Co
Co2 1.0000000000 0.7500000000 0.2500000000 0.5000000000  Biso 1.0 Co
Se3 1.0000000000 0.6620531442 0.6620531442 0.0000000000  Biso 1.0 Se
Se4 1.0000000000 0.3379468558 0.3379468558 0.0000000000  Biso 1.0 Se
Tl5 1.0000000000 0.0000000000 0.0000000000 0.0000000000  Biso 1.0 Tl
