# AFLOW.org Repositories
# Co2Si3Zr3   [ORCC,ORCC,oS32] (STD_PRIM d
data_Co2Si3Zr3
_pd_phase_name Co2Si3Zr3
_cell_length_a  5.3884128215
_cell_length_b  5.3884128215
_cell_length_c  13.2907308929
_cell_angle_alpha  90.0000000000
_cell_angle_beta  90.0000000000
_cell_angle_gamma  137.3868944864
_symmetry_space_group_name_H-M  'P1'
_symmetry_Int_Tables_Number  1
loop_
_symmetry_equiv_pos_site_id
_symmetry_equiv_pos_as_xyz
  1  x,y,z
loop_
 _atom_site_label
 _atom_site_occupancy
 _atom_site_fract_x
 _atom_site_fract_y
 _atom_site_fract_z
 _atom_site_thermal_displace_type
 _atom_site_B_iso_or_equiv
 _atom_site_type_symbol
Co1 1.0000000000 0.7839971978 0.2160028022 0.4149189545  Biso 1.0 Co
Co2 1.0000000000 0.2160028022 0.7839971978 0.9149189545  Biso 1.0 Co
Co3 1.0000000000 0.7839971978 0.2160028022 0.0850810455  Biso 1.0 Co
Co4 1.0000000000 0.2160028022 0.7839971978 0.5850810455  Biso 1.0 Co
Si5 1.0000000000 0.6086828522 0.3913171478 0.9573820146  Biso 1.0 Si
Si6 1.0000000000 0.3913171478 0.6086828522 0.4573820146  Biso 1.0 Si
Si7 1.0000000000 0.6086828522 0.3913171478 0.5426179854  Biso 1.0 Si
Si8 1.0000000000 0.3913171478 0.6086828522 0.0426179854  Biso 1.0 Si
Si9 1.0000000000 0.3381070038 0.6618929962 0.7500000000  Biso 1.0 Si
Si10 1.0000000000 0.6618929962 0.3381070038 0.2500000000  Biso 1.0 Si
Zr11 1.0000000000 0.9249344962 0.0750655038 0.8835648295  Biso 1.0 Zr
Zr12 1.0000000000 0.0750655038 0.9249344962 0.3835648295  Biso 1.0 Zr
Zr13 1.0000000000 0.9249344962 0.0750655038 0.6164351705  Biso 1.0 Zr
Zr14 1.0000000000 0.0750655038 0.9249344962 0.1164351705  Biso 1.0 Zr
Zr15 1.0000000000 0.6298162062 0.3701837938 0.7500000000  Biso 1.0 Zr
Zr16 1.0000000000 0.3701837938 0.6298162062 0.2500000000  Biso 1.0 Zr
