# AFLOW.org Repositories
# Co2Y3   [ORC,ORC,oP20] (STD_PRIM doi:10.
data_Co2Y3
_pd_phase_name Co2Y3
_cell_length_a  3.7430627925
_cell_length_b  9.3942349373
_cell_length_c  12.3790975056
_cell_angle_alpha  90.0000000000
_cell_angle_beta  90.0000000000
_cell_angle_gamma  90.0000000000
_symmetry_space_group_name_H-M  'P1'
_symmetry_Int_Tables_Number  1
loop_
_symmetry_equiv_pos_site_id
_symmetry_equiv_pos_as_xyz
  1  x,y,z
loop_
 _atom_site_label
 _atom_site_occupancy
 _atom_site_fract_x
 _atom_site_fract_y
 _atom_site_fract_z
 _atom_site_thermal_displace_type
 _atom_site_B_iso_or_equiv
 _atom_site_type_symbol
Co1 1.0000000000 0.0000000000 0.1500990075 0.2649645976  Biso 1.0 Co
Co2 1.0000000000 0.0000000000 0.8499009925 0.7350354024  Biso 1.0 Co
Co3 1.0000000000 0.5000000000 0.6500990075 0.2350354024  Biso 1.0 Co
Co4 1.0000000000 0.5000000000 0.3499009925 0.7649645976  Biso 1.0 Co
Co5 1.0000000000 0.0000000000 0.1393969246 0.4746975592  Biso 1.0 Co
Co6 1.0000000000 0.0000000000 0.8606030754 0.5253024408  Biso 1.0 Co
Co7 1.0000000000 0.5000000000 0.6393969246 0.0253024408  Biso 1.0 Co
Co8 1.0000000000 0.5000000000 0.3606030754 0.9746975592  Biso 1.0 Co
Y9 1.0000000000 0.0000000000 0.8019213332 0.1302930194  Biso 1.0 Y
Y10 1.0000000000 0.0000000000 0.1980786668 0.8697069806  Biso 1.0 Y
Y11 1.0000000000 0.5000000000 0.3019213332 0.3697069806  Biso 1.0 Y
Y12 1.0000000000 0.5000000000 0.6980786668 0.6302930194  Biso 1.0 Y
Y13 1.0000000000 0.0000000000 0.6264959731 0.3867268309  Biso 1.0 Y
Y14 1.0000000000 0.0000000000 0.3735040269 0.6132731691  Biso 1.0 Y
Y15 1.0000000000 0.5000000000 0.1264959731 0.1132731691  Biso 1.0 Y
Y16 1.0000000000 0.5000000000 0.8735040269 0.8867268309  Biso 1.0 Y
Y17 1.0000000000 0.0000000000 0.4381409272 0.1315208945  Biso 1.0 Y
Y18 1.0000000000 0.0000000000 0.5618590728 0.8684791055  Biso 1.0 Y
Y19 1.0000000000 0.5000000000 0.9381409272 0.3684791055  Biso 1.0 Y
Y20 1.0000000000 0.5000000000 0.0618590728 0.6315208945  Biso 1.0 Y
