# AFLOW.org Repositories
# Cr1Cu1O2   [HEX,HEX,hP8] (STD_PRIM doi:1
data_Cr1Cu1O2
_pd_phase_name Cr1Cu1O2
_cell_length_a  3.0454702523
_cell_length_b  3.0454702523
_cell_length_c  11.4474551256
_cell_angle_alpha  90.0000000000
_cell_angle_beta  90.0000000000
_cell_angle_gamma  120.0000000000
_symmetry_space_group_name_H-M  'P1'
_symmetry_Int_Tables_Number  1
loop_
_symmetry_equiv_pos_site_id
_symmetry_equiv_pos_as_xyz
  1  x,y,z
loop_
 _atom_site_label
 _atom_site_occupancy
 _atom_site_fract_x
 _atom_site_fract_y
 _atom_site_fract_z
 _atom_site_thermal_displace_type
 _atom_site_B_iso_or_equiv
 _atom_site_type_symbol
Cr1 1.0000000000 0.0000000000 0.0000000000 0.0000000000  Biso 1.0 Cr
Cr2 1.0000000000 0.0000000000 0.0000000000 0.5000000000  Biso 1.0 Cr
Cu3 1.0000000000 0.6666874879 0.3333749757 0.2500000000  Biso 1.0 Cu
Cu4 1.0000000000 0.3333125121 0.6666250243 0.7500000000  Biso 1.0 Cu
O5 1.0000000000 0.6666737570 0.3333475140 0.0880789046  Biso 1.0 O
O6 1.0000000000 0.3333262430 0.6666524860 0.5880789046  Biso 1.0 O
O7 1.0000000000 0.3333262430 0.6666524860 0.9119210954  Biso 1.0 O
O8 1.0000000000 0.6666737570 0.3333475140 0.4119210954  Biso 1.0 O
