# AFLOW.org Repositories
# Cr1K1O2   [HEX,HEX,hP8] (STD_PRIM doi:10
data_Cr1K1O2
_pd_phase_name Cr1K1O2
_cell_length_a  3.1196110838
_cell_length_b  3.1196110838
_cell_length_c  12.0023647901
_cell_angle_alpha  90.0000000000
_cell_angle_beta  90.0000000000
_cell_angle_gamma  120.0000000000
_symmetry_space_group_name_H-M  'P1'
_symmetry_Int_Tables_Number  1
loop_
_symmetry_equiv_pos_site_id
_symmetry_equiv_pos_as_xyz
  1  x,y,z
loop_
 _atom_site_label
 _atom_site_occupancy
 _atom_site_fract_x
 _atom_site_fract_y
 _atom_site_fract_z
 _atom_site_thermal_displace_type
 _atom_site_B_iso_or_equiv
 _atom_site_type_symbol
Cr1 1.0000000000 0.0000000000 0.0000000000 0.0000000000  Biso 1.0 Cr
Cr2 1.0000000000 0.0000000000 0.0000000000 0.5000000000  Biso 1.0 Cr
K3 1.0000000000 0.6666865940 0.3333731879 0.2500000000  Biso 1.0 K
K4 1.0000000000 0.3333134060 0.6666268121 0.7500000000  Biso 1.0 K
O5 1.0000000000 0.6666679017 0.3333358034 0.5856589480  Biso 1.0 O
O6 1.0000000000 0.3333320983 0.6666641966 0.0856589480  Biso 1.0 O
O7 1.0000000000 0.3333320983 0.6666641966 0.4143410520  Biso 1.0 O
O8 1.0000000000 0.6666679017 0.3333358034 0.9143410520  Biso 1.0 O
