# AFLOW.org Repositories
# Cr1O2   [CUB,CUB,cP12] (STD_PRIM doi:10.
data_Cr1O2
_pd_phase_name Cr1O2
_cell_length_a  4.8291039785
_cell_length_b  4.8291039785
_cell_length_c  4.8291039785
_cell_angle_alpha  90.0000000000
_cell_angle_beta  90.0000000000
_cell_angle_gamma  90.0000000000
_symmetry_space_group_name_H-M  'P1'
_symmetry_Int_Tables_Number  1
loop_
_symmetry_equiv_pos_site_id
_symmetry_equiv_pos_as_xyz
  1  x,y,z
loop_
 _atom_site_label
 _atom_site_occupancy
 _atom_site_fract_x
 _atom_site_fract_y
 _atom_site_fract_z
 _atom_site_thermal_displace_type
 _atom_site_B_iso_or_equiv
 _atom_site_type_symbol
Cr1 1.0000000000 0.0000000000 0.0000000000 0.0000000000  Biso 1.0 Cr
Cr2 1.0000000000 0.5000000000 0.0000000000 0.5000000000  Biso 1.0 Cr
Cr3 1.0000000000 0.0000000000 0.5000000000 0.5000000000  Biso 1.0 Cr
Cr4 1.0000000000 0.5000000000 0.5000000000 0.0000000000  Biso 1.0 Cr
O5 1.0000000000 0.6385670973 0.6385670973 0.3614329027  Biso 1.0 O
O6 1.0000000000 0.8614329027 0.3614329027 0.8614329027  Biso 1.0 O
O7 1.0000000000 0.3614329027 0.1385670973 0.1385670973  Biso 1.0 O
O8 1.0000000000 0.1385670973 0.8614329027 0.6385670973  Biso 1.0 O
O9 1.0000000000 0.3614329027 0.3614329027 0.6385670973  Biso 1.0 O
O10 1.0000000000 0.1385670973 0.6385670973 0.1385670973  Biso 1.0 O
O11 1.0000000000 0.6385670973 0.8614329027 0.8614329027  Biso 1.0 O
O12 1.0000000000 0.8614329027 0.1385670973 0.3614329027  Biso 1.0 O
