# AFLOW.org Repositories
# Cr2Hg1Se4   [FCC,FCC,cF56] (STD_PRIM doi
data_Cr2Hg1Se4
_pd_phase_name Cr2Hg1Se4
_cell_length_a  7.7823144348
_cell_length_b  7.7823144348
_cell_length_c  7.7823144348
_cell_angle_alpha  60.0000000000
_cell_angle_beta  60.0000000000
_cell_angle_gamma  60.0000000000
_symmetry_space_group_name_H-M  'P1'
_symmetry_Int_Tables_Number  1
loop_
_symmetry_equiv_pos_site_id
_symmetry_equiv_pos_as_xyz
  1  x,y,z
loop_
 _atom_site_label
 _atom_site_occupancy
 _atom_site_fract_x
 _atom_site_fract_y
 _atom_site_fract_z
 _atom_site_thermal_displace_type
 _atom_site_B_iso_or_equiv
 _atom_site_type_symbol
Cr1 1.0000000000 0.4998125881 0.5001909392 0.4998182760  Biso 1.0 Cr
Cr2 1.0000000000 0.0000000000 0.5001575182 0.4998424818  Biso 1.0 Cr
Cr3 1.0000000000 0.4999845093 0.0000000000 0.4998235156  Biso 1.0 Cr
Cr4 1.0000000000 0.4998633552 0.5001366448 0.0000000000  Biso 1.0 Cr
Hg5 1.0000000000 0.8748759011 0.8751804775 0.8748778771  Biso 1.0 Hg
Hg6 1.0000000000 0.1248450885 0.1252662820 0.1247429869  Biso 1.0 Hg
Se7 1.0000000000 0.7344856554 0.7346538833 0.7345486674  Biso 1.0 Se
Se8 1.0000000000 0.2961100322 0.7347855393 0.7343857676  Biso 1.0 Se
Se9 1.0000000000 0.7344710497 0.2964129640 0.7343271868  Biso 1.0 Se
Se10 1.0000000000 0.7344610840 0.7346928154 0.2960567321  Biso 1.0 Se
Se11 1.0000000000 0.7036788931 0.2655003278 0.2652771650  Biso 1.0 Se
Se12 1.0000000000 0.2653008021 0.2655361471 0.2652567421  Biso 1.0 Se
Se13 1.0000000000 0.2652919723 0.7039750140 0.2652516260  Biso 1.0 Se
Se14 1.0000000000 0.2653666983 0.2655250620 0.7035860528  Biso 1.0 Se
