# AFLOW.org Repositories
# Cr2Mg1O4   [BCT,BCT2,tI28] (STD_PRIM doi
data_Cr2Mg1O4
_pd_phase_name Cr2Mg1O4
_cell_length_a  5.9979199963
_cell_length_b  5.9979199963
_cell_length_c  5.9979199963
_cell_angle_alpha  119.9528120931
_cell_angle_beta  119.9528120931
_cell_angle_gamma  90.0817513024
_symmetry_space_group_name_H-M  'P1'
_symmetry_Int_Tables_Number  1
loop_
_symmetry_equiv_pos_site_id
_symmetry_equiv_pos_as_xyz
  1  x,y,z
loop_
 _atom_site_label
 _atom_site_occupancy
 _atom_site_fract_x
 _atom_site_fract_y
 _atom_site_fract_z
 _atom_site_thermal_displace_type
 _atom_site_B_iso_or_equiv
 _atom_site_type_symbol
Cr1 1.0000000000 0.5000000000 0.5000000000 0.0000000000  Biso 1.0 Cr
Cr2 1.0000000000 0.0000000000 0.5000000000 0.5000000000  Biso 1.0 Cr
Cr3 1.0000000000 0.0000000000 0.5000000000 0.0000000000  Biso 1.0 Cr
Cr4 1.0000000000 0.0000000000 0.0000000000 0.5000000000  Biso 1.0 Cr
Mg5 1.0000000000 0.3750000000 0.1250000000 0.2500000000  Biso 1.0 Mg
Mg6 1.0000000000 0.6250000000 0.8750000000 0.7500000000  Biso 1.0 Mg
O7 1.0000000000 0.2168343391 0.7391673685 0.4776669706  Biso 1.0 O
O8 1.0000000000 0.7615003980 0.7391673685 0.0223330294  Biso 1.0 O
O9 1.0000000000 0.2391673685 0.2615003980 0.5223330294  Biso 1.0 O
O10 1.0000000000 0.2391673685 0.7168343391 0.9776669706  Biso 1.0 O
O11 1.0000000000 0.2384996020 0.2608326315 0.9776669706  Biso 1.0 O
O12 1.0000000000 0.7831656609 0.2608326315 0.5223330294  Biso 1.0 O
O13 1.0000000000 0.7608326315 0.7384996020 0.4776669706  Biso 1.0 O
O14 1.0000000000 0.7608326315 0.2831656609 0.0223330294  Biso 1.0 O
