# AFLOW.org Repositories
# Cr2O4Zn1   [FCC,FCC,cF56] (STD_PRIM doi:
data_Cr2O4Zn1
_pd_phase_name Cr2O4Zn1
_cell_length_a  5.9541406027
_cell_length_b  5.9541406027
_cell_length_c  5.9541406027
_cell_angle_alpha  120.1190671726
_cell_angle_beta  120.1190671726
_cell_angle_gamma  89.7938930290
_symmetry_space_group_name_H-M  'P1'
_symmetry_Int_Tables_Number  1
loop_
_symmetry_equiv_pos_site_id
_symmetry_equiv_pos_as_xyz
  1  x,y,z
loop_
 _atom_site_label
 _atom_site_occupancy
 _atom_site_fract_x
 _atom_site_fract_y
 _atom_site_fract_z
 _atom_site_thermal_displace_type
 _atom_site_B_iso_or_equiv
 _atom_site_type_symbol
Cr1 1.0000000000 0.5000000000 0.5000000000 0.0000000000  Biso 1.0 Cr
Cr2 1.0000000000 0.0000000000 0.5000000000 0.5000000000  Biso 1.0 Cr
Cr3 1.0000000000 0.0000000000 0.0000000000 0.5000000000  Biso 1.0 Cr
Cr4 1.0000000000 0.0000000000 0.5000000000 0.0000000000  Biso 1.0 Cr
O5 1.0000000000 0.7791396523 0.2602278019 0.5189118504  Biso 1.0 O
O6 1.0000000000 0.2413159515 0.2602278019 0.9810881496  Biso 1.0 O
O7 1.0000000000 0.7602278019 0.2791396523 0.0189118504  Biso 1.0 O
O8 1.0000000000 0.7602278019 0.7413159515 0.4810881496  Biso 1.0 O
O9 1.0000000000 0.7586840485 0.7397721981 0.0189118504  Biso 1.0 O
O10 1.0000000000 0.2208603477 0.7397721981 0.4810881496  Biso 1.0 O
O11 1.0000000000 0.2397721981 0.7208603477 0.9810881496  Biso 1.0 O
O12 1.0000000000 0.2397721981 0.2586840485 0.5189118504  Biso 1.0 O
Zn13 1.0000000000 0.6250000000 0.8750000000 0.7500000000  Biso 1.0 Zn
Zn14 1.0000000000 0.3750000000 0.1250000000 0.2500000000  Biso 1.0 Zn
