# AFLOW.org Repositories
# Cr2Se4Zn1   [FCC,FCC,cF56] (STD_PRIM doi
data_Cr2Se4Zn1
_pd_phase_name Cr2Se4Zn1
_cell_length_a  7.5376162226
_cell_length_b  7.5376162226
_cell_length_c  7.5376162226
_cell_angle_alpha  60.0000000000
_cell_angle_beta  60.0000000000
_cell_angle_gamma  60.0000000000
_symmetry_space_group_name_H-M  'P1'
_symmetry_Int_Tables_Number  1
loop_
_symmetry_equiv_pos_site_id
_symmetry_equiv_pos_as_xyz
  1  x,y,z
loop_
 _atom_site_label
 _atom_site_occupancy
 _atom_site_fract_x
 _atom_site_fract_y
 _atom_site_fract_z
 _atom_site_thermal_displace_type
 _atom_site_B_iso_or_equiv
 _atom_site_type_symbol
Cr1 1.0000000000 0.8750000000 0.3750000000 0.3750000000  Biso 1.0 Cr
Cr2 1.0000000000 0.3750000000 0.8750000000 0.3750000000  Biso 1.0 Cr
Cr3 1.0000000000 0.3750000000 0.3750000000 0.3750000000  Biso 1.0 Cr
Cr4 1.0000000000 0.3750000000 0.3750000000 0.8750000000  Biso 1.0 Cr
Se5 1.0000000000 0.1506061014 0.6164646329 0.6164646329  Biso 1.0 Se
Se6 1.0000000000 0.6164646329 0.1506061014 0.6164646329  Biso 1.0 Se
Se7 1.0000000000 0.6164646329 0.6164646329 0.6164646329  Biso 1.0 Se
Se8 1.0000000000 0.6164646329 0.6164646329 0.1506061014  Biso 1.0 Se
Se9 1.0000000000 0.1335353671 0.5993938986 0.1335353671  Biso 1.0 Se
Se10 1.0000000000 0.5993938986 0.1335353671 0.1335353671  Biso 1.0 Se
Se11 1.0000000000 0.1335353671 0.1335353671 0.1335353671  Biso 1.0 Se
Se12 1.0000000000 0.1335353671 0.1335353671 0.5993938986  Biso 1.0 Se
Zn13 1.0000000000 0.0000000000 0.0000000000 0.0000000000  Biso 1.0 Zn
Zn14 1.0000000000 0.7500000000 0.7500000000 0.7500000000  Biso 1.0 Zn
