# AFLOW.org Repositories
# Cr2S4Zn1   [FCC,FCC,cF56] (STD_PRIM doi:
data_Cr2S4Zn1
_pd_phase_name Cr2S4Zn1
_cell_length_a  7.1367280508
_cell_length_b  7.1367280508
_cell_length_c  7.1367280508
_cell_angle_alpha  60.0000000000
_cell_angle_beta  60.0000000000
_cell_angle_gamma  60.0000000000
_symmetry_space_group_name_H-M  'P1'
_symmetry_Int_Tables_Number  1
loop_
_symmetry_equiv_pos_site_id
_symmetry_equiv_pos_as_xyz
  1  x,y,z
loop_
 _atom_site_label
 _atom_site_occupancy
 _atom_site_fract_x
 _atom_site_fract_y
 _atom_site_fract_z
 _atom_site_thermal_displace_type
 _atom_site_B_iso_or_equiv
 _atom_site_type_symbol
Cr1 1.0000000000 0.5000172078 0.4999827922 0.4999557860  Biso 1.0 Cr
Cr2 1.0000000000 0.0000000000 0.4999427035 0.0000000000  Biso 1.0 Cr
Cr3 1.0000000000 0.4999867302 0.0000000000 0.0000000000  Biso 1.0 Cr
Cr4 1.0000000000 0.5000400975 0.4999599025 0.0000000000  Biso 1.0 Cr
S5 1.0000000000 0.2585561510 0.2585248394 0.2243682469  Biso 1.0 S
S6 1.0000000000 0.7244213311 0.2584968407 0.7585050815  Biso 1.0 S
S7 1.0000000000 0.2585491786 0.7243508976 0.7585082444  Biso 1.0 S
S8 1.0000000000 0.2585609075 0.2585076107 0.7585030941  Biso 1.0 S
S9 1.0000000000 0.2756364013 0.7414460077 0.2414235378  Biso 1.0 S
S10 1.0000000000 0.7414852622 0.7414350092 0.7755796631  Biso 1.0 S
S11 1.0000000000 0.7414814100 0.2755689939 0.2414494088  Biso 1.0 S
S12 1.0000000000 0.7414775887 0.7414327670 0.2414413938  Biso 1.0 S
Zn13 1.0000000000 0.1250183854 0.1249679435 0.6249886352  Biso 1.0 Zn
Zn14 1.0000000000 0.8750113138 0.8749589436 0.3749821507  Biso 1.0 Zn
