# AFLOW.org Repositories
# Cs1Cu1F4   [BCT,BCT2,tI24] (STD_PRIM doi
data_Cs1Cu1F4
_pd_phase_name Cs1Cu1F4
_cell_length_a  7.5675975917
_cell_length_b  7.5675975917
_cell_length_c  7.5675975917
_cell_angle_alpha  130.3318853784
_cell_angle_beta  130.3318853784
_cell_angle_gamma  72.8767461304
_symmetry_space_group_name_H-M  'P1'
_symmetry_Int_Tables_Number  1
loop_
_symmetry_equiv_pos_site_id
_symmetry_equiv_pos_as_xyz
  1  x,y,z
loop_
 _atom_site_label
 _atom_site_occupancy
 _atom_site_fract_x
 _atom_site_fract_y
 _atom_site_fract_z
 _atom_site_thermal_displace_type
 _atom_site_B_iso_or_equiv
 _atom_site_type_symbol
Cs1 1.0000000000 0.2500000000 0.2500000000 0.0000000000  Biso 1.0 Cs
Cs2 1.0000000000 0.7500000000 0.7500000000 0.0000000000  Biso 1.0 Cs
Cu3 1.0000000000 0.0000000000 0.5000000000 0.5000000000  Biso 1.0 Cu
Cu4 1.0000000000 0.5000000000 0.0000000000 0.5000000000  Biso 1.0 Cu
F5 1.0000000000 0.9626978632 0.7430886530 0.5000000000  Biso 1.0 F
F6 1.0000000000 0.2430886530 0.4626978632 0.5000000000  Biso 1.0 F
F7 1.0000000000 0.7430886530 0.2430886530 0.7803907898  Biso 1.0 F
F8 1.0000000000 0.4626978632 0.9626978632 0.2196092102  Biso 1.0 F
F9 1.0000000000 0.5373021368 0.0373021368 0.7803907898  Biso 1.0 F
F10 1.0000000000 0.2569113470 0.7569113470 0.2196092102  Biso 1.0 F
F11 1.0000000000 0.7569113470 0.5373021368 0.5000000000  Biso 1.0 F
F12 1.0000000000 0.0373021368 0.2569113470 0.5000000000  Biso 1.0 F
