# AFLOW.org Repositories
# Cs1Fe1O2   [FCC,FCC,cF32] (STD_PRIM doi:
data_Cs1Fe1O2
_pd_phase_name Cs1Fe1O2
_cell_length_a  6.1689892730
_cell_length_b  6.1689892730
_cell_length_c  6.1689892730
_cell_angle_alpha  60.0000000000
_cell_angle_beta  60.0000000000
_cell_angle_gamma  60.0000000000
_symmetry_space_group_name_H-M  'P1'
_symmetry_Int_Tables_Number  1
loop_
_symmetry_equiv_pos_site_id
_symmetry_equiv_pos_as_xyz
  1  x,y,z
loop_
 _atom_site_label
 _atom_site_occupancy
 _atom_site_fract_x
 _atom_site_fract_y
 _atom_site_fract_z
 _atom_site_thermal_displace_type
 _atom_site_B_iso_or_equiv
 _atom_site_type_symbol
Cs1 1.0000000000 0.3750000000 0.3750000000 0.3750000000  Biso 1.0 Cs
Cs2 1.0000000000 0.6250000000 0.6250000000 0.6250000000  Biso 1.0 Cs
Fe3 1.0000000000 0.1250000000 0.1250000000 0.1250000000  Biso 1.0 Fe
Fe4 1.0000000000 0.8750000000 0.8750000000 0.8750000000  Biso 1.0 Fe
O5 1.0000000000 0.0000000000 0.0000000000 0.0000000000  Biso 1.0 O
O6 1.0000000000 0.5000000000 0.0000000000 0.0000000000  Biso 1.0 O
O7 1.0000000000 0.0000000000 0.0000000000 0.5000000000  Biso 1.0 O
O8 1.0000000000 0.0000000000 0.5000000000 0.0000000000  Biso 1.0 O
