# AFLOW.org Repositories
# Cs1Na2   [HEX,HEX,hP12] (STD_PRIM doi:10
data_Cs1Na2
_pd_phase_name Cs1Na2
_cell_length_a  7.6623067636
_cell_length_b  7.6623067636
_cell_length_c  12.7479952942
_cell_angle_alpha  90.0000000000
_cell_angle_beta  90.0000000000
_cell_angle_gamma  120.0000000000
_symmetry_space_group_name_H-M  'P1'
_symmetry_Int_Tables_Number  1
loop_
_symmetry_equiv_pos_site_id
_symmetry_equiv_pos_as_xyz
  1  x,y,z
loop_
 _atom_site_label
 _atom_site_occupancy
 _atom_site_fract_x
 _atom_site_fract_y
 _atom_site_fract_z
 _atom_site_thermal_displace_type
 _atom_site_B_iso_or_equiv
 _atom_site_type_symbol
Cs1 1.0000000000 0.6666705022 0.3333410043 0.0627889409  Biso 1.0 Cs
Cs2 1.0000000000 0.3333294978 0.6666589957 0.5627889409  Biso 1.0 Cs
Cs3 1.0000000000 0.3333294978 0.6666589957 0.9372110591  Biso 1.0 Cs
Cs4 1.0000000000 0.6666705022 0.3333410043 0.4372110591  Biso 1.0 Cs
Na5 1.0000000000 0.0000000000 0.0000000000 0.0000000000  Biso 1.0 Na
Na6 1.0000000000 0.0000000000 0.0000000000 0.5000000000  Biso 1.0 Na
Na7 1.0000000000 0.6691614220 0.8345860258 0.2500000000  Biso 1.0 Na
Na8 1.0000000000 0.1654246038 0.8345860258 0.2500000000  Biso 1.0 Na
Na9 1.0000000000 0.1654189199 0.3308378399 0.2500000000  Biso 1.0 Na
Na10 1.0000000000 0.3308385780 0.1654139742 0.7500000000  Biso 1.0 Na
Na11 1.0000000000 0.8345753962 0.1654139742 0.7500000000  Biso 1.0 Na
Na12 1.0000000000 0.8345810801 0.6691621601 0.7500000000  Biso 1.0 Na
