# AFLOW.org Repositories
# Cs1O2Y1   [HEX,HEX,hP8] (STD_PRIM doi:10
data_Cs1O2Y1
_pd_phase_name Cs1O2Y1
_cell_length_a  3.5669607040
_cell_length_b  3.5669607040
_cell_length_c  13.7559163768
_cell_angle_alpha  90.0000000000
_cell_angle_beta  90.0000000000
_cell_angle_gamma  120.0000000000
_symmetry_space_group_name_H-M  'P1'
_symmetry_Int_Tables_Number  1
loop_
_symmetry_equiv_pos_site_id
_symmetry_equiv_pos_as_xyz
  1  x,y,z
loop_
 _atom_site_label
 _atom_site_occupancy
 _atom_site_fract_x
 _atom_site_fract_y
 _atom_site_fract_z
 _atom_site_thermal_displace_type
 _atom_site_B_iso_or_equiv
 _atom_site_type_symbol
Cs1 1.0000000000 0.3333088547 0.6666797946 0.5000000000  Biso 1.0 Cs
Cs2 1.0000000000 0.0000000000 0.0000000000 0.0000000000  Biso 1.0 Cs
O3 1.0000000000 0.3333111236 0.6666807405 0.1676785977  Biso 1.0 O
O4 1.0000000000 0.3333111236 0.6666807405 0.8323214023  Biso 1.0 O
O5 1.0000000000 0.0000000000 0.0000000000 0.3328465472  Biso 1.0 O
O6 1.0000000000 0.0000000000 0.0000000000 0.6671534528  Biso 1.0 O
Y7 1.0000000000 0.6666318980 0.3333226335 0.2502650124  Biso 1.0 Y
Y8 1.0000000000 0.6666318980 0.3333226335 0.7497349876  Biso 1.0 Y
