# AFLOW.org Repositories
# Cs1S2Tb1   [HEX,HEX,hP8] (STD_PRIM doi:1
data_Cs1S2Tb1
_pd_phase_name Cs1S2Tb1
_cell_length_a  4.1244349070
_cell_length_b  4.1244349070
_cell_length_c  16.1068490107
_cell_angle_alpha  90.0000000000
_cell_angle_beta  90.0000000000
_cell_angle_gamma  120.0000000000
_symmetry_space_group_name_H-M  'P1'
_symmetry_Int_Tables_Number  1
loop_
_symmetry_equiv_pos_site_id
_symmetry_equiv_pos_as_xyz
  1  x,y,z
loop_
 _atom_site_label
 _atom_site_occupancy
 _atom_site_fract_x
 _atom_site_fract_y
 _atom_site_fract_z
 _atom_site_thermal_displace_type
 _atom_site_B_iso_or_equiv
 _atom_site_type_symbol
Cs1 1.0000000000 0.6666847519 0.3333695037 0.2500000000  Biso 1.0 Cs
Cs2 1.0000000000 0.3333152481 0.6666304963 0.7500000000  Biso 1.0 Cs
S3 1.0000000000 0.6666734185 0.3333468369 0.5913371269  Biso 1.0 S
S4 1.0000000000 0.3333265815 0.6666531631 0.0913371269  Biso 1.0 S
S5 1.0000000000 0.3333265815 0.6666531631 0.4086628731  Biso 1.0 S
S6 1.0000000000 0.6666734185 0.3333468369 0.9086628731  Biso 1.0 S
Tb7 1.0000000000 0.0000000000 0.0000000000 0.0000000000  Biso 1.0 Tb
Tb8 1.0000000000 0.0000000000 0.0000000000 0.5000000000  Biso 1.0 Tb
