# AFLOW.org Repositories
# Cs2.67O16Te5.33   [FCC,FCC,cF72] (STD_PR
data_Cs2.67O16Te5.33
_pd_phase_name Cs2.67O16Te5.33
_cell_length_a  7.4726801419
_cell_length_b  7.4726801419
_cell_length_c  7.4726801419
_cell_angle_alpha  60.0000000000
_cell_angle_beta  60.0000000000
_cell_angle_gamma  60.0000000000
_symmetry_space_group_name_H-M  'P1'
_symmetry_Int_Tables_Number  1
loop_
_symmetry_equiv_pos_site_id
_symmetry_equiv_pos_as_xyz
  1  x,y,z
loop_
 _atom_site_label
 _atom_site_occupancy
 _atom_site_fract_x
 _atom_site_fract_y
 _atom_site_fract_z
 _atom_site_thermal_displace_type
 _atom_site_B_iso_or_equiv
 _atom_site_type_symbol
Cs1 1.0000000000 0.8750000000 0.8750000000 0.3750000000  Biso 1.0 Cs
Cs2 1.0000000000 0.1250000000 0.1250000000 0.6250000000  Biso 1.0 Cs
O3 1.0000000000 0.5684193416 0.1815806584 0.6815806584  Biso 1.0 O
O4 1.0000000000 0.1815806584 0.5684193416 0.0684193416  Biso 1.0 O
O5 1.0000000000 0.5684193416 0.5684193416 0.6815806584  Biso 1.0 O
O6 1.0000000000 0.1815806584 0.1815806584 0.0684193416  Biso 1.0 O
O7 1.0000000000 0.1815806584 0.5684193416 0.6815806584  Biso 1.0 O
O8 1.0000000000 0.5684193416 0.1815806584 0.0684193416  Biso 1.0 O
O9 1.0000000000 0.4315806584 0.8184193416 0.3184193416  Biso 1.0 O
O10 1.0000000000 0.8184193416 0.4315806584 0.9315806584  Biso 1.0 O
O11 1.0000000000 0.4315806584 0.8184193416 0.9315806584  Biso 1.0 O
O12 1.0000000000 0.8184193416 0.4315806584 0.3184193416  Biso 1.0 O
O13 1.0000000000 0.8184193416 0.8184193416 0.9315806584  Biso 1.0 O
O14 1.0000000000 0.4315806584 0.4315806584 0.3184193416  Biso 1.0 O
Te15 1.0000000000 0.5000000000 0.5000000000 0.5000000000  Biso 1.0 Te
Te16 1.0000000000 0.5000000000 0.0000000000 0.0000000000  Biso 1.0 Te
Te17 1.0000000000 0.0000000000 0.5000000000 0.0000000000  Biso 1.0 Te
Te18 1.0000000000 0.5000000000 0.5000000000 0.0000000000  Biso 1.0 Te
