# AFLOW.org Repositories
# Cs2I6Sn1   [CUB,CUB,cP36] (STD_CONV doi:
data_Cs2I6Sn1
_pd_phase_name Cs2I6Sn1
_cell_length_a  12.0582893825
_cell_length_b  12.0582893825
_cell_length_c  12.0582893825
_cell_angle_alpha  90.0000000000
_cell_angle_beta  90.0000000000
_cell_angle_gamma  90.0000000000
_symmetry_space_group_name_H-M  'P1'
_symmetry_Int_Tables_Number  1
loop_
_symmetry_equiv_pos_site_id
_symmetry_equiv_pos_as_xyz
  1  x,y,z
loop_
 _atom_site_label
 _atom_site_occupancy
 _atom_site_fract_x
 _atom_site_fract_y
 _atom_site_fract_z
 _atom_site_thermal_displace_type
 _atom_site_B_iso_or_equiv
 _atom_site_type_symbol
Cs1 1.0000000000 0.7500000000 0.2500000000 0.2500000000  Biso 1.0 Cs
Cs2 1.0000000000 0.2500000000 0.7500000000 0.2500000000  Biso 1.0 Cs
Cs3 1.0000000000 0.2500000000 0.2500000000 0.7500000000  Biso 1.0 Cs
Cs4 1.0000000000 0.7500000000 0.7500000000 0.7500000000  Biso 1.0 Cs
Cs5 1.0000000000 0.2500000000 0.2500000000 0.2500000000  Biso 1.0 Cs
Cs6 1.0000000000 0.7500000000 0.7500000000 0.2500000000  Biso 1.0 Cs
Cs7 1.0000000000 0.7500000000 0.2500000000 0.7500000000  Biso 1.0 Cs
Cs8 1.0000000000 0.2500000000 0.7500000000 0.7500000000  Biso 1.0 Cs
I9 1.0000000000 0.5000000000 0.2565499901 0.0000000000  Biso 1.0 I
I10 1.0000000000 0.0000000000 0.7565499901 0.0000000000  Biso 1.0 I
I11 1.0000000000 0.0000000000 0.2565499901 0.5000000000  Biso 1.0 I
I12 1.0000000000 0.5000000000 0.7565499901 0.5000000000  Biso 1.0 I
I13 1.0000000000 0.0000000000 0.2434500099 0.0000000000  Biso 1.0 I
I14 1.0000000000 0.5000000000 0.7434500099 0.0000000000  Biso 1.0 I
I15 1.0000000000 0.5000000000 0.2434500099 0.5000000000  Biso 1.0 I
I16 1.0000000000 0.0000000000 0.7434500099 0.5000000000  Biso 1.0 I
I17 1.0000000000 0.7565499901 0.0000000000 0.0000000000  Biso 1.0 I
I18 1.0000000000 0.2565499901 0.5000000000 0.0000000000  Biso 1.0 I
I19 1.0000000000 0.2565499901 0.0000000000 0.5000000000  Biso 1.0 I
I20 1.0000000000 0.7565499901 0.5000000000 0.5000000000  Biso 1.0 I
I21 1.0000000000 0.2434500099 0.0000000000 0.0000000000  Biso 1.0 I
I22 1.0000000000 0.7434500099 0.5000000000 0.0000000000  Biso 1.0 I
I23 1.0000000000 0.7434500099 0.0000000000 0.5000000000  Biso 1.0 I
I24 1.0000000000 0.2434500099 0.5000000000 0.5000000000  Biso 1.0 I
I25 1.0000000000 0.5000000000 0.0000000000 0.2565499901  Biso 1.0 I
I26 1.0000000000 0.0000000000 0.5000000000 0.2565499901  Biso 1.0 I
I27 1.0000000000 0.0000000000 0.0000000000 0.7565499901  Biso 1.0 I
I28 1.0000000000 0.5000000000 0.5000000000 0.7565499901  Biso 1.0 I
I29 1.0000000000 0.0000000000 0.0000000000 0.2434500099  Biso 1.0 I
I30 1.0000000000 0.5000000000 0.5000000000 0.2434500099  Biso 1.0 I
I31 1.0000000000 0.5000000000 0.0000000000 0.7434500099  Biso 1.0 I
I32 1.0000000000 0.0000000000 0.5000000000 0.7434500099  Biso 1.0 I
Sn33 1.0000000000 0.0000000000 0.0000000000 0.0000000000  Biso 1.0 Sn
Sn34 1.0000000000 0.5000000000 0.5000000000 0.0000000000  Biso 1.0 Sn
Sn35 1.0000000000 0.5000000000 0.0000000000 0.5000000000  Biso 1.0 Sn
Sn36 1.0000000000 0.0000000000 0.5000000000 0.5000000000  Biso 1.0 Sn
