# AFLOW.org Repositories
# Cs2Te1   [ORC,ORC,oP12] (STD_PRIM doi:10
data_Cs2Te1
_pd_phase_name Cs2Te1
_cell_length_a  5.8680587646
_cell_length_b  9.5905422428
_cell_length_c  11.6234486783
_cell_angle_alpha  90.0000000000
_cell_angle_beta  90.0000000000
_cell_angle_gamma  90.0000000000
_symmetry_space_group_name_H-M  'P1'
_symmetry_Int_Tables_Number  1
loop_
_symmetry_equiv_pos_site_id
_symmetry_equiv_pos_as_xyz
  1  x,y,z
loop_
 _atom_site_label
 _atom_site_occupancy
 _atom_site_fract_x
 _atom_site_fract_y
 _atom_site_fract_z
 _atom_site_thermal_displace_type
 _atom_site_B_iso_or_equiv
 _atom_site_type_symbol
Cs1 1.0000000000 0.2500000000 0.0265394962 0.8279865426  Biso 1.0 Cs
Cs2 1.0000000000 0.7500000000 0.4734605038 0.3279865426  Biso 1.0 Cs
Cs3 1.0000000000 0.7500000000 0.9734605038 0.1720134574  Biso 1.0 Cs
Cs4 1.0000000000 0.2500000000 0.5265394962 0.6720134574  Biso 1.0 Cs
Cs5 1.0000000000 0.2500000000 0.1460548163 0.4259056973  Biso 1.0 Cs
Cs6 1.0000000000 0.7500000000 0.3539451837 0.9259056973  Biso 1.0 Cs
Cs7 1.0000000000 0.7500000000 0.8539451837 0.5740943027  Biso 1.0 Cs
Cs8 1.0000000000 0.2500000000 0.6460548163 0.0740943027  Biso 1.0 Cs
Te9 1.0000000000 0.2500000000 0.2468553866 0.1125397776  Biso 1.0 Te
Te10 1.0000000000 0.7500000000 0.2531446134 0.6125397776  Biso 1.0 Te
Te11 1.0000000000 0.7500000000 0.7531446134 0.8874602224  Biso 1.0 Te
Te12 1.0000000000 0.2500000000 0.7468553866 0.3874602224  Biso 1.0 Te
