# AFLOW.org Repositories
# Cs2Te5   [ORC,ORC,oP28] (STD_CONV doi:10
data_Cs2Te5
_pd_phase_name Cs2Te5
_cell_length_a  9.6963597628
_cell_length_b  12.3564996211
_cell_length_c  10.3334806710
_cell_angle_alpha  90.0000000000
_cell_angle_beta  90.0000000000
_cell_angle_gamma  90.0000000000
_symmetry_space_group_name_H-M  'P1'
_symmetry_Int_Tables_Number  1
loop_
_symmetry_equiv_pos_site_id
_symmetry_equiv_pos_as_xyz
  1  x,y,z
loop_
 _atom_site_label
 _atom_site_occupancy
 _atom_site_fract_x
 _atom_site_fract_y
 _atom_site_fract_z
 _atom_site_thermal_displace_type
 _atom_site_B_iso_or_equiv
 _atom_site_type_symbol
Cs1 1.0000000000 0.0000000000 0.5690993318 0.7500000000  Biso 1.0 Cs
Cs2 1.0000000000 0.5000000000 0.0690993318 0.7500000000  Biso 1.0 Cs
Cs3 1.0000000000 0.0000000000 0.4309006682 0.2500000000  Biso 1.0 Cs
Cs4 1.0000000000 0.5000000000 0.9309006682 0.2500000000  Biso 1.0 Cs
Cs5 1.0000000000 0.0000000000 0.2083994020 0.7500000000  Biso 1.0 Cs
Cs6 1.0000000000 0.5000000000 0.7083994020 0.7500000000  Biso 1.0 Cs
Cs7 1.0000000000 0.0000000000 0.7916005980 0.2500000000  Biso 1.0 Cs
Cs8 1.0000000000 0.5000000000 0.2916005980 0.2500000000  Biso 1.0 Cs
Te9 1.0000000000 0.0000000000 0.8883764989 0.7500000000  Biso 1.0 Te
Te10 1.0000000000 0.5000000000 0.3883764989 0.7500000000  Biso 1.0 Te
Te11 1.0000000000 0.0000000000 0.1116235011 0.2500000000  Biso 1.0 Te
Te12 1.0000000000 0.5000000000 0.6116235011 0.2500000000  Biso 1.0 Te
Te13 1.0000000000 0.2730239599 0.6084302383 0.4588425139  Biso 1.0 Te
Te14 1.0000000000 0.7730239599 0.1084302383 0.4588425139  Biso 1.0 Te
Te15 1.0000000000 0.2269760401 0.8915697617 0.9588425139  Biso 1.0 Te
Te16 1.0000000000 0.7269760401 0.3915697617 0.9588425139  Biso 1.0 Te
Te17 1.0000000000 0.2269760401 0.1084302383 0.0411574861  Biso 1.0 Te
Te18 1.0000000000 0.7269760401 0.6084302383 0.0411574861  Biso 1.0 Te
Te19 1.0000000000 0.2730239599 0.3915697617 0.5411574861  Biso 1.0 Te
Te20 1.0000000000 0.7730239599 0.8915697617 0.5411574861  Biso 1.0 Te
Te21 1.0000000000 0.2269760401 0.8915697617 0.5411574861  Biso 1.0 Te
Te22 1.0000000000 0.7269760401 0.3915697617 0.5411574861  Biso 1.0 Te
Te23 1.0000000000 0.2730239599 0.6084302383 0.0411574861  Biso 1.0 Te
Te24 1.0000000000 0.7730239599 0.1084302383 0.0411574861  Biso 1.0 Te
Te25 1.0000000000 0.2730239599 0.3915697617 0.9588425139  Biso 1.0 Te
Te26 1.0000000000 0.7730239599 0.8915697617 0.9588425139  Biso 1.0 Te
Te27 1.0000000000 0.2269760401 0.1084302383 0.4588425139  Biso 1.0 Te
Te28 1.0000000000 0.7269760401 0.6084302383 0.4588425139  Biso 1.0 Te
