# AFLOW.org Repositories
# Cs3Hg20   [CUB,CUB,cP46] (STD_PRIM doi:1
data_Cs3Hg20
_pd_phase_name Cs3Hg20
_cell_length_a  11.5147506771
_cell_length_b  11.5147506771
_cell_length_c  11.5147506771
_cell_angle_alpha  90.0000000000
_cell_angle_beta  90.0000000000
_cell_angle_gamma  90.0000000000
_symmetry_space_group_name_H-M  'P1'
_symmetry_Int_Tables_Number  1
loop_
_symmetry_equiv_pos_site_id
_symmetry_equiv_pos_as_xyz
  1  x,y,z
loop_
 _atom_site_label
 _atom_site_occupancy
 _atom_site_fract_x
 _atom_site_fract_y
 _atom_site_fract_z
 _atom_site_thermal_displace_type
 _atom_site_B_iso_or_equiv
 _atom_site_type_symbol
Cs1 1.0000000000 0.7500000000 0.5000000000 0.0000000000  Biso 1.0 Cs
Cs2 1.0000000000 0.2500000000 0.5000000000 0.0000000000  Biso 1.0 Cs
Cs3 1.0000000000 0.0000000000 0.7500000000 0.5000000000  Biso 1.0 Cs
Cs4 1.0000000000 0.0000000000 0.2500000000 0.5000000000  Biso 1.0 Cs
Cs5 1.0000000000 0.5000000000 0.0000000000 0.2500000000  Biso 1.0 Cs
Cs6 1.0000000000 0.5000000000 0.0000000000 0.7500000000  Biso 1.0 Cs
Hg7 1.0000000000 0.0000000000 0.0000000000 0.0000000000  Biso 1.0 Hg
Hg8 1.0000000000 0.5000000000 0.5000000000 0.5000000000  Biso 1.0 Hg
Hg9 1.0000000000 0.7445703487 0.8654871633 0.0000000000  Biso 1.0 Hg
Hg10 1.0000000000 0.2554296513 0.1345128367 0.0000000000  Biso 1.0 Hg
Hg11 1.0000000000 0.2554296513 0.8654871633 0.0000000000  Biso 1.0 Hg
Hg12 1.0000000000 0.7445703487 0.1345128367 0.0000000000  Biso 1.0 Hg
Hg13 1.0000000000 0.0000000000 0.7445703487 0.1345128367  Biso 1.0 Hg
Hg14 1.0000000000 0.0000000000 0.2554296513 0.8654871633  Biso 1.0 Hg
Hg15 1.0000000000 0.0000000000 0.2554296513 0.1345128367  Biso 1.0 Hg
Hg16 1.0000000000 0.0000000000 0.7445703487 0.8654871633  Biso 1.0 Hg
Hg17 1.0000000000 0.8654871633 0.0000000000 0.2554296513  Biso 1.0 Hg
Hg18 1.0000000000 0.1345128367 0.0000000000 0.7445703487  Biso 1.0 Hg
Hg19 1.0000000000 0.8654871633 0.0000000000 0.7445703487  Biso 1.0 Hg
Hg20 1.0000000000 0.1345128367 0.0000000000 0.2554296513  Biso 1.0 Hg
Hg21 1.0000000000 0.3654871633 0.2445703487 0.5000000000  Biso 1.0 Hg
Hg22 1.0000000000 0.6345128367 0.7554296513 0.5000000000  Biso 1.0 Hg
Hg23 1.0000000000 0.3654871633 0.7554296513 0.5000000000  Biso 1.0 Hg
Hg24 1.0000000000 0.6345128367 0.2445703487 0.5000000000  Biso 1.0 Hg
Hg25 1.0000000000 0.2445703487 0.5000000000 0.3654871633  Biso 1.0 Hg
Hg26 1.0000000000 0.7554296513 0.5000000000 0.6345128367  Biso 1.0 Hg
Hg27 1.0000000000 0.7554296513 0.5000000000 0.3654871633  Biso 1.0 Hg
Hg28 1.0000000000 0.2445703487 0.5000000000 0.6345128367  Biso 1.0 Hg
Hg29 1.0000000000 0.5000000000 0.3654871633 0.2445703487  Biso 1.0 Hg
Hg30 1.0000000000 0.5000000000 0.6345128367 0.7554296513  Biso 1.0 Hg
Hg31 1.0000000000 0.5000000000 0.3654871633 0.7554296513  Biso 1.0 Hg
Hg32 1.0000000000 0.5000000000 0.6345128367 0.2445703487  Biso 1.0 Hg
Hg33 1.0000000000 0.7500000000 0.7500000000 0.2500000000  Biso 1.0 Hg
Hg34 1.0000000000 0.2500000000 0.2500000000 0.2500000000  Biso 1.0 Hg
Hg35 1.0000000000 0.2500000000 0.7500000000 0.7500000000  Biso 1.0 Hg
Hg36 1.0000000000 0.7500000000 0.2500000000 0.7500000000  Biso 1.0 Hg
Hg37 1.0000000000 0.2500000000 0.2500000000 0.7500000000  Biso 1.0 Hg
Hg38 1.0000000000 0.7500000000 0.7500000000 0.7500000000  Biso 1.0 Hg
Hg39 1.0000000000 0.7500000000 0.2500000000 0.2500000000  Biso 1.0 Hg
Hg40 1.0000000000 0.2500000000 0.7500000000 0.2500000000  Biso 1.0 Hg
Hg41 1.0000000000 0.7500000000 0.0000000000 0.5000000000  Biso 1.0 Hg
Hg42 1.0000000000 0.2500000000 0.0000000000 0.5000000000  Biso 1.0 Hg
Hg43 1.0000000000 0.5000000000 0.7500000000 0.0000000000  Biso 1.0 Hg
Hg44 1.0000000000 0.5000000000 0.2500000000 0.0000000000  Biso 1.0 Hg
Hg45 1.0000000000 0.0000000000 0.5000000000 0.2500000000  Biso 1.0 Hg
Hg46 1.0000000000 0.0000000000 0.5000000000 0.7500000000  Biso 1.0 Hg
