# AFLOW.org Repositories
# Cu1Dy2Ge6   [ORCC,ORCC,oS18] (STD_PRIM d
data_Cu1Dy2Ge6
_pd_phase_name Cu1Dy2Ge6
_cell_length_a  10.8749066927
_cell_length_b  10.8749066927
_cell_length_c  4.0956580936
_cell_angle_alpha  90.0000000000
_cell_angle_beta  90.0000000000
_cell_angle_gamma  158.6557432150
_symmetry_space_group_name_H-M  'P1'
_symmetry_Int_Tables_Number  1
loop_
_symmetry_equiv_pos_site_id
_symmetry_equiv_pos_as_xyz
  1  x,y,z
loop_
 _atom_site_label
 _atom_site_occupancy
 _atom_site_fract_x
 _atom_site_fract_y
 _atom_site_fract_z
 _atom_site_thermal_displace_type
 _atom_site_B_iso_or_equiv
 _atom_site_type_symbol
Cu1 1.0000000000 0.7759181844 0.2240818156 0.5000000000  Biso 1.0 Cu
Dy2 1.0000000000 0.9953697096 0.0046302904 0.0000000000  Biso 1.0 Dy
Dy3 1.0000000000 0.3310613051 0.6689386949 0.0000000000  Biso 1.0 Dy
Ge4 1.0000000000 0.7147452198 0.2852547802 0.0000000000  Biso 1.0 Ge
Ge5 1.0000000000 0.5982022345 0.4017977655 0.0000000000  Biso 1.0 Ge
Ge6 1.0000000000 0.4574840289 0.5425159711 0.5000000000  Biso 1.0 Ge
Ge7 1.0000000000 0.8845156181 0.1154843819 0.5000000000  Biso 1.0 Ge
Ge8 1.0000000000 0.0974455360 0.9025544640 0.5000000000  Biso 1.0 Ge
Ge9 1.0000000000 0.2142581636 0.7857418364 0.5000000000  Biso 1.0 Ge
