# AFLOW.org Repositories
# Cu1Dy1Pb1   [HEX,HEX,hP6] (STD_PRIM doi:
data_Cu1Dy1Pb1
_pd_phase_name Cu1Dy1Pb1
_cell_length_a  4.6326576529
_cell_length_b  4.6326576529
_cell_length_c  7.3799144172
_cell_angle_alpha  90.0000000000
_cell_angle_beta  90.0000000000
_cell_angle_gamma  120.0000000000
_symmetry_space_group_name_H-M  'P1'
_symmetry_Int_Tables_Number  1
loop_
_symmetry_equiv_pos_site_id
_symmetry_equiv_pos_as_xyz
  1  x,y,z
loop_
 _atom_site_label
 _atom_site_occupancy
 _atom_site_fract_x
 _atom_site_fract_y
 _atom_site_fract_z
 _atom_site_thermal_displace_type
 _atom_site_B_iso_or_equiv
 _atom_site_type_symbol
Cu1 1.0000000000 0.3332329493 0.6666164747 0.8203404066  Biso 1.0 Cu
Cu2 1.0000000000 0.6667670507 0.3333835253 0.3203404066  Biso 1.0 Cu
Dy3 1.0000000000 0.0000000000 0.0000000000 0.9961618844  Biso 1.0 Dy
Dy4 1.0000000000 0.0000000000 0.0000000000 0.4961618844  Biso 1.0 Dy
Pb5 1.0000000000 0.3334233776 0.6667116888 0.2265977090  Biso 1.0 Pb
Pb6 1.0000000000 0.6665766224 0.3332883112 0.7265977090  Biso 1.0 Pb
