# AFLOW.org Repositories
# Cu1Ge6Y2   [ORCC,ORCC,oS18] (STD_PRIM do
data_Cu1Ge6Y2
_pd_phase_name Cu1Ge6Y2
_cell_length_a  10.9232041222
_cell_length_b  10.9232041222
_cell_length_c  4.1142989625
_cell_angle_alpha  90.0000000000
_cell_angle_beta  90.0000000000
_cell_angle_gamma  158.6773065939
_symmetry_space_group_name_H-M  'P1'
_symmetry_Int_Tables_Number  1
loop_
_symmetry_equiv_pos_site_id
_symmetry_equiv_pos_as_xyz
  1  x,y,z
loop_
 _atom_site_label
 _atom_site_occupancy
 _atom_site_fract_x
 _atom_site_fract_y
 _atom_site_fract_z
 _atom_site_thermal_displace_type
 _atom_site_B_iso_or_equiv
 _atom_site_type_symbol
Cu1 1.0000000000 0.7767880297 0.2232119703 0.5000000000  Biso 1.0 Cu
Ge2 1.0000000000 0.7162636172 0.2837363828 0.0000000000  Biso 1.0 Ge
Ge3 1.0000000000 0.6000025350 0.3999974650 0.0000000000  Biso 1.0 Ge
Ge4 1.0000000000 0.4577063259 0.5422936741 0.5000000000  Biso 1.0 Ge
Ge5 1.0000000000 0.8852549553 0.1147450447 0.5000000000  Biso 1.0 Ge
Ge6 1.0000000000 0.0989785337 0.9010214663 0.5000000000  Biso 1.0 Ge
Ge7 1.0000000000 0.2152906053 0.7847093947 0.5000000000  Biso 1.0 Ge
Y8 1.0000000000 0.9967835191 0.0032164809 0.0000000000  Biso 1.0 Y
Y9 1.0000000000 0.3319318787 0.6680681213 0.0000000000  Biso 1.0 Y
