# AFLOW.org Repositories
# Cu1Ge1Zr1   [ORC,ORC,oP12] (STD_PRIM doi
data_Cu1Ge1Zr1
_pd_phase_name Cu1Ge1Zr1
_cell_length_a  4.0131143124
_cell_length_b  6.5912085060
_cell_length_c  7.4526595777
_cell_angle_alpha  90.0000000000
_cell_angle_beta  90.0000000000
_cell_angle_gamma  90.0000000000
_symmetry_space_group_name_H-M  'P1'
_symmetry_Int_Tables_Number  1
loop_
_symmetry_equiv_pos_site_id
_symmetry_equiv_pos_as_xyz
  1  x,y,z
loop_
 _atom_site_label
 _atom_site_occupancy
 _atom_site_fract_x
 _atom_site_fract_y
 _atom_site_fract_z
 _atom_site_thermal_displace_type
 _atom_site_B_iso_or_equiv
 _atom_site_type_symbol
Cu1 1.0000000000 0.2500000000 0.1680623370 0.4251967882  Biso 1.0 Cu
Cu2 1.0000000000 0.7500000000 0.3319376630 0.9251967882  Biso 1.0 Cu
Cu3 1.0000000000 0.7500000000 0.8319376630 0.5748032118  Biso 1.0 Cu
Cu4 1.0000000000 0.2500000000 0.6680623370 0.0748032118  Biso 1.0 Cu
Ge5 1.0000000000 0.2500000000 0.7747005393 0.3969932443  Biso 1.0 Ge
Ge6 1.0000000000 0.7500000000 0.7252994607 0.8969932443  Biso 1.0 Ge
Ge7 1.0000000000 0.7500000000 0.2252994607 0.6030067557  Biso 1.0 Ge
Ge8 1.0000000000 0.2500000000 0.2747005393 0.1030067557  Biso 1.0 Ge
Zr9 1.0000000000 0.2500000000 0.0121175217 0.8049676278  Biso 1.0 Zr
Zr10 1.0000000000 0.7500000000 0.4878824783 0.3049676278  Biso 1.0 Zr
Zr11 1.0000000000 0.7500000000 0.9878824783 0.1950323722  Biso 1.0 Zr
Zr12 1.0000000000 0.2500000000 0.5121175217 0.6950323722  Biso 1.0 Zr
