# AFLOW.org Repositories
# Cu1Ga1S2   [BCT,BCT2,tI16] (STD_PRIM doi
data_Cu1Ga1S2
_pd_phase_name Cu1Ga1S2
_cell_length_a  6.5232140044
_cell_length_b  6.5232140044
_cell_length_c  6.5232140044
_cell_angle_alpha  131.3442183568
_cell_angle_beta  131.3442183568
_cell_angle_gamma  71.2667557915
_symmetry_space_group_name_H-M  'P1'
_symmetry_Int_Tables_Number  1
loop_
_symmetry_equiv_pos_site_id
_symmetry_equiv_pos_as_xyz
  1  x,y,z
loop_
 _atom_site_label
 _atom_site_occupancy
 _atom_site_fract_x
 _atom_site_fract_y
 _atom_site_fract_z
 _atom_site_thermal_displace_type
 _atom_site_B_iso_or_equiv
 _atom_site_type_symbol
Cu1 1.0000000000 0.0000000000 0.0000000000 0.0000000000  Biso 1.0 Cu
Cu2 1.0000000000 0.7500000000 0.2500000000 0.5000000000  Biso 1.0 Cu
Ga3 1.0000000000 0.5000000000 0.5000000000 0.0000000000  Biso 1.0 Ga
Ga4 1.0000000000 0.2500000000 0.7500000000 0.5000000000  Biso 1.0 Ga
S5 1.0000000000 0.3750000000 0.3771047037 0.5021047037  Biso 1.0 S
S6 1.0000000000 0.8750000000 0.8728952963 0.4978952963  Biso 1.0 S
S7 1.0000000000 0.6228952963 0.1250000000 0.9978952963  Biso 1.0 S
S8 1.0000000000 0.1271047037 0.6250000000 0.0021047037  Biso 1.0 S
