# AFLOW.org Repositories
# Cu1Hf5Sn3   [HEX,HEX,hP18] (STD_PRIM doi
data_Cu1Hf5Sn3
_pd_phase_name Cu1Hf5Sn3
_cell_length_a  8.6217796388
_cell_length_b  8.6217796388
_cell_length_c  5.8448298691
_cell_angle_alpha  90.0000000000
_cell_angle_beta  90.0000000000
_cell_angle_gamma  120.0000000000
_symmetry_space_group_name_H-M  'P1'
_symmetry_Int_Tables_Number  1
loop_
_symmetry_equiv_pos_site_id
_symmetry_equiv_pos_as_xyz
  1  x,y,z
loop_
 _atom_site_label
 _atom_site_occupancy
 _atom_site_fract_x
 _atom_site_fract_y
 _atom_site_fract_z
 _atom_site_thermal_displace_type
 _atom_site_B_iso_or_equiv
 _atom_site_type_symbol
Cu1 1.0000000000 0.0000000000 0.0000000000 0.0000000000  Biso 1.0 Cu
Cu2 1.0000000000 0.0000000000 0.0000000000 0.5000000000  Biso 1.0 Cu
Hf3 1.0000000000 0.3333369052 0.6666684526 0.0000000000  Biso 1.0 Hf
Hf4 1.0000000000 0.6666630948 0.3333315474 0.5000000000  Biso 1.0 Hf
Hf5 1.0000000000 0.6666630948 0.3333315474 0.0000000000  Biso 1.0 Hf
Hf6 1.0000000000 0.3333369052 0.6666684526 0.5000000000  Biso 1.0 Hf
Hf7 1.0000000000 0.7371033405 0.7371033405 0.2500000000  Biso 1.0 Hf
Hf8 1.0000000000 0.2628997811 0.0000000000 0.2500000000  Biso 1.0 Hf
Hf9 1.0000000000 0.0000000000 0.2628979969 0.2500000000  Biso 1.0 Hf
Hf10 1.0000000000 0.2628966595 0.2628966595 0.7500000000  Biso 1.0 Hf
Hf11 1.0000000000 0.7371002189 0.0000000000 0.7500000000  Biso 1.0 Hf
Hf12 1.0000000000 0.0000000000 0.7371020031 0.7500000000  Biso 1.0 Hf
Sn13 1.0000000000 0.3859703901 0.3859703901 0.2500000000  Biso 1.0 Sn
Sn14 1.0000000000 0.6140290063 0.0000000000 0.2500000000  Biso 1.0 Sn
Sn15 1.0000000000 0.0000000000 0.6140239286 0.2500000000  Biso 1.0 Sn
Sn16 1.0000000000 0.6140296099 0.6140296099 0.7500000000  Biso 1.0 Sn
Sn17 1.0000000000 0.3859709937 0.0000000000 0.7500000000  Biso 1.0 Sn
Sn18 1.0000000000 0.0000000000 0.3859760714 0.7500000000  Biso 1.0 Sn
