# AFLOW.org Repositories
# Cu1Hf1Si1   [ORC,ORC,oP12] (STD_PRIM doi
data_Cu1Hf1Si1
_pd_phase_name Cu1Hf1Si1
_cell_length_a  3.8985377589
_cell_length_b  6.4557615101
_cell_length_c  7.3005832427
_cell_angle_alpha  90.0000000000
_cell_angle_beta  90.0000000000
_cell_angle_gamma  90.0000000000
_symmetry_space_group_name_H-M  'P1'
_symmetry_Int_Tables_Number  1
loop_
_symmetry_equiv_pos_site_id
_symmetry_equiv_pos_as_xyz
  1  x,y,z
loop_
 _atom_site_label
 _atom_site_occupancy
 _atom_site_fract_x
 _atom_site_fract_y
 _atom_site_fract_z
 _atom_site_thermal_displace_type
 _atom_site_B_iso_or_equiv
 _atom_site_type_symbol
Cu1 1.0000000000 0.2500000000 0.1638275089 0.4260480054  Biso 1.0 Cu
Cu2 1.0000000000 0.7500000000 0.3361724911 0.9260480054  Biso 1.0 Cu
Cu3 1.0000000000 0.7500000000 0.8361724911 0.5739519946  Biso 1.0 Cu
Cu4 1.0000000000 0.2500000000 0.6638275089 0.0739519946  Biso 1.0 Cu
Hf5 1.0000000000 0.2500000000 0.0132551509 0.8091077531  Biso 1.0 Hf
Hf6 1.0000000000 0.7500000000 0.4867448491 0.3091077531  Biso 1.0 Hf
Hf7 1.0000000000 0.7500000000 0.9867448491 0.1908922469  Biso 1.0 Hf
Hf8 1.0000000000 0.2500000000 0.5132551509 0.6908922469  Biso 1.0 Hf
Si9 1.0000000000 0.2500000000 0.7752916980 0.3947154438  Biso 1.0 Si
Si10 1.0000000000 0.7500000000 0.7247083020 0.8947154438  Biso 1.0 Si
Si11 1.0000000000 0.7500000000 0.2247083020 0.6052845562  Biso 1.0 Si
Si12 1.0000000000 0.2500000000 0.2752916980 0.1052845562  Biso 1.0 Si
