# AFLOW.org Repositories
# Cu1In1O2   [HEX,HEX,hP8] (STD_PRIM doi:1
data_Cu1In1O2
_pd_phase_name Cu1In1O2
_cell_length_a  3.3321438554
_cell_length_b  3.3321438554
_cell_length_c  11.6609554897
_cell_angle_alpha  90.0000000000
_cell_angle_beta  90.0000000000
_cell_angle_gamma  120.0000000000
_symmetry_space_group_name_H-M  'P1'
_symmetry_Int_Tables_Number  1
loop_
_symmetry_equiv_pos_site_id
_symmetry_equiv_pos_as_xyz
  1  x,y,z
loop_
 _atom_site_label
 _atom_site_occupancy
 _atom_site_fract_x
 _atom_site_fract_y
 _atom_site_fract_z
 _atom_site_thermal_displace_type
 _atom_site_B_iso_or_equiv
 _atom_site_type_symbol
Cu1 1.0000000000 0.3333922066 0.6666961033 0.2500000000  Biso 1.0 Cu
Cu2 1.0000000000 0.6666077934 0.3333038967 0.7500000000  Biso 1.0 Cu
In3 1.0000000000 0.0000000000 0.0000000000 0.0000000000  Biso 1.0 In
In4 1.0000000000 0.0000000000 0.0000000000 0.5000000000  Biso 1.0 In
O5 1.0000000000 0.3333503181 0.6666751591 0.0912077685  Biso 1.0 O
O6 1.0000000000 0.6666496819 0.3333248409 0.5912077685  Biso 1.0 O
O7 1.0000000000 0.6666496819 0.3333248409 0.9087922315  Biso 1.0 O
O8 1.0000000000 0.3333503181 0.6666751591 0.4087922315  Biso 1.0 O
