# AFLOW.org Repositories
# Cu1K1S1   [ORC,ORC,oP12] (STD_PRIM doi:1
data_Cu1K1S1
_pd_phase_name Cu1K1S1
_cell_length_a  5.3510156543
_cell_length_b  6.2585212944
_cell_length_c  10.6969366300
_cell_angle_alpha  90.0000000000
_cell_angle_beta  90.0000000000
_cell_angle_gamma  90.0000000000
_symmetry_space_group_name_H-M  'P1'
_symmetry_Int_Tables_Number  1
loop_
_symmetry_equiv_pos_site_id
_symmetry_equiv_pos_as_xyz
  1  x,y,z
loop_
 _atom_site_label
 _atom_site_occupancy
 _atom_site_fract_x
 _atom_site_fract_y
 _atom_site_fract_z
 _atom_site_thermal_displace_type
 _atom_site_B_iso_or_equiv
 _atom_site_type_symbol
Cu1 1.0000000000 0.5016008973 0.4992414750 0.4997298608  Biso 1.0 Cu
Cu2 1.0000000000 0.0016008973 0.5007585250 0.5002701392  Biso 1.0 Cu
Cu3 1.0000000000 0.5016008973 0.0000000000 0.0000000000  Biso 1.0 Cu
Cu4 1.0000000000 0.0016008973 0.0000000000 0.0000000000  Biso 1.0 Cu
K5 1.0000000000 0.7497834991 0.9761948375 0.6536214567  Biso 1.0 K
K6 1.0000000000 0.2497834991 0.0238051625 0.3463785433  Biso 1.0 K
K7 1.0000000000 0.7497834991 0.5238051625 0.1536214567  Biso 1.0 K
K8 1.0000000000 0.2497834991 0.4761948375 0.8463785433  Biso 1.0 K
S9 1.0000000000 0.2526156036 0.7254591202 0.5896771240  Biso 1.0 S
S10 1.0000000000 0.7526156036 0.2745408798 0.4103228760  Biso 1.0 S
S11 1.0000000000 0.2526156036 0.7745408798 0.0896771240  Biso 1.0 S
S12 1.0000000000 0.7526156036 0.2254591202 0.9103228760  Biso 1.0 S
