# AFLOW.org Repositories
# Cu1Ni2Sn1   [FCC,FCC,cF16] (STD_PRIM doi
data_Cu1Ni2Sn1
_pd_phase_name Cu1Ni2Sn1
_cell_length_a  4.2228267973
_cell_length_b  4.2228267973
_cell_length_c  4.2228267973
_cell_angle_alpha  60.0000000000
_cell_angle_beta  60.0000000000
_cell_angle_gamma  60.0000000000
_symmetry_space_group_name_H-M  'P1'
_symmetry_Int_Tables_Number  1
loop_
_symmetry_equiv_pos_site_id
_symmetry_equiv_pos_as_xyz
  1  x,y,z
loop_
 _atom_site_label
 _atom_site_occupancy
 _atom_site_fract_x
 _atom_site_fract_y
 _atom_site_fract_z
 _atom_site_thermal_displace_type
 _atom_site_B_iso_or_equiv
 _atom_site_type_symbol
Cu1 1.0000000000 0.0000000000 0.0000000000 0.0000000000  Biso 1.0 Cu
Ni2 1.0000000000 0.7500000000 0.7500000000 0.7500000000  Biso 1.0 Ni
Ni3 1.0000000000 0.2500000000 0.2500000000 0.2500000000  Biso 1.0 Ni
Sn4 1.0000000000 0.5000000000 0.5000000000 0.5000000000  Biso 1.0 Sn
