# AFLOW.org Repositories
# Cu1Na1Se1   [TET,TET,tP6] (STD_PRIM doi:
data_Cu1Na1Se1
_pd_phase_name Cu1Na1Se1
_cell_length_a  4.1236161131
_cell_length_b  4.1236161131
_cell_length_c  6.8824728316
_cell_angle_alpha  90.0000000000
_cell_angle_beta  90.0000000000
_cell_angle_gamma  90.0000000000
_symmetry_space_group_name_H-M  'P1'
_symmetry_Int_Tables_Number  1
loop_
_symmetry_equiv_pos_site_id
_symmetry_equiv_pos_as_xyz
  1  x,y,z
loop_
 _atom_site_label
 _atom_site_occupancy
 _atom_site_fract_x
 _atom_site_fract_y
 _atom_site_fract_z
 _atom_site_thermal_displace_type
 _atom_site_B_iso_or_equiv
 _atom_site_type_symbol
Cu1 1.0000000000 0.7500000000 0.2500000000 0.5000000000  Biso 1.0 Cu
Cu2 1.0000000000 0.2500000000 0.7500000000 0.5000000000  Biso 1.0 Cu
Na3 1.0000000000 0.2500000000 0.2500000000 0.1619724006  Biso 1.0 Na
Na4 1.0000000000 0.7500000000 0.7500000000 0.8380275994  Biso 1.0 Na
Se5 1.0000000000 0.2500000000 0.2500000000 0.7236777318  Biso 1.0 Se
Se6 1.0000000000 0.7500000000 0.7500000000 0.2763222682  Biso 1.0 Se
