# AFLOW.org Repositories
# Cu1O2Y1   [HEX,HEX,hP8] (STD_PRIM doi:10
data_Cu1O2Y1
_pd_phase_name Cu1O2Y1
_cell_length_a  3.5570605875
_cell_length_b  3.5570605875
_cell_length_c  11.4745467814
_cell_angle_alpha  90.0000000000
_cell_angle_beta  90.0000000000
_cell_angle_gamma  120.0000000000
_symmetry_space_group_name_H-M  'P1'
_symmetry_Int_Tables_Number  1
loop_
_symmetry_equiv_pos_site_id
_symmetry_equiv_pos_as_xyz
  1  x,y,z
loop_
 _atom_site_label
 _atom_site_occupancy
 _atom_site_fract_x
 _atom_site_fract_y
 _atom_site_fract_z
 _atom_site_thermal_displace_type
 _atom_site_B_iso_or_equiv
 _atom_site_type_symbol
Cu1 1.0000000000 0.6666897711 0.3333795422 0.2500000000  Biso 1.0 Cu
Cu2 1.0000000000 0.3333102289 0.6666204578 0.7500000000  Biso 1.0 Cu
O3 1.0000000000 0.6666892417 0.3333784835 0.0904568129  Biso 1.0 O
O4 1.0000000000 0.3333107583 0.6666215165 0.5904568129  Biso 1.0 O
O5 1.0000000000 0.3333107583 0.6666215165 0.9095431871  Biso 1.0 O
O6 1.0000000000 0.6666892417 0.3333784835 0.4095431871  Biso 1.0 O
Y7 1.0000000000 0.0000000000 0.0000000000 0.0000000000  Biso 1.0 Y
Y8 1.0000000000 0.0000000000 0.0000000000 0.5000000000  Biso 1.0 Y
