# AFLOW.org Repositories
# Cu1O2Sr1   [ORCC,ORCC,oS16] (STD_PRIM do
data_Cu1O2Sr1
_pd_phase_name Cu1O2Sr1
_cell_length_a  8.3254846481
_cell_length_b  8.3254846481
_cell_length_c  3.9723114679
_cell_angle_alpha  90.0000000000
_cell_angle_beta  90.0000000000
_cell_angle_gamma  154.7762497105
_symmetry_space_group_name_H-M  'P1'
_symmetry_Int_Tables_Number  1
loop_
_symmetry_equiv_pos_site_id
_symmetry_equiv_pos_as_xyz
  1  x,y,z
loop_
 _atom_site_label
 _atom_site_occupancy
 _atom_site_fract_x
 _atom_site_fract_y
 _atom_site_fract_z
 _atom_site_thermal_displace_type
 _atom_site_B_iso_or_equiv
 _atom_site_type_symbol
Cu1 1.0000000000 0.9382744834 0.0617255166 0.7500000000  Biso 1.0 Cu
Cu2 1.0000000000 0.0617255166 0.9382744834 0.2500000000  Biso 1.0 Cu
O3 1.0000000000 0.0555173569 0.9444826431 0.7500000000  Biso 1.0 O
O4 1.0000000000 0.9444826431 0.0555173569 0.2500000000  Biso 1.0 O
O5 1.0000000000 0.8207357924 0.1792642076 0.7500000000  Biso 1.0 O
O6 1.0000000000 0.1792642076 0.8207357924 0.2500000000  Biso 1.0 O
Sr7 1.0000000000 0.6674958958 0.3325041042 0.7500000000  Biso 1.0 Sr
Sr8 1.0000000000 0.3325041042 0.6674958958 0.2500000000  Biso 1.0 Sr
