# AFLOW.org Repositories
# Cu1Rh2Se4   [FCC,FCC,cF56] (STD_PRIM doi
data_Cu1Rh2Se4
_pd_phase_name Cu1Rh2Se4
_cell_length_a  7.3753034537
_cell_length_b  7.3753034537
_cell_length_c  7.3753034537
_cell_angle_alpha  60.0000000000
_cell_angle_beta  60.0000000000
_cell_angle_gamma  60.0000000000
_symmetry_space_group_name_H-M  'P1'
_symmetry_Int_Tables_Number  1
loop_
_symmetry_equiv_pos_site_id
_symmetry_equiv_pos_as_xyz
  1  x,y,z
loop_
 _atom_site_label
 _atom_site_occupancy
 _atom_site_fract_x
 _atom_site_fract_y
 _atom_site_fract_z
 _atom_site_thermal_displace_type
 _atom_site_B_iso_or_equiv
 _atom_site_type_symbol
Cu1 1.0000000000 0.0000000000 0.0000000000 0.0000000000  Biso 1.0 Cu
Cu2 1.0000000000 0.2500000000 0.2500000000 0.2500000000  Biso 1.0 Cu
Rh3 1.0000000000 0.6250000000 0.6250000000 0.6250000000  Biso 1.0 Rh
Rh4 1.0000000000 0.1250000000 0.6250000000 0.6250000000  Biso 1.0 Rh
Rh5 1.0000000000 0.6250000000 0.6250000000 0.1250000000  Biso 1.0 Rh
Rh6 1.0000000000 0.6250000000 0.1250000000 0.6250000000  Biso 1.0 Rh
Se7 1.0000000000 0.3847957406 0.3847957406 0.3847957406  Biso 1.0 Se
Se8 1.0000000000 0.8456127781 0.3847957406 0.3847957406  Biso 1.0 Se
Se9 1.0000000000 0.3847957406 0.3847957406 0.8456127781  Biso 1.0 Se
Se10 1.0000000000 0.3847957406 0.8456127781 0.3847957406  Biso 1.0 Se
Se11 1.0000000000 0.4043872219 0.8652042594 0.8652042594  Biso 1.0 Se
Se12 1.0000000000 0.8652042594 0.8652042594 0.8652042594  Biso 1.0 Se
Se13 1.0000000000 0.8652042594 0.8652042594 0.4043872219  Biso 1.0 Se
Se14 1.0000000000 0.8652042594 0.4043872219 0.8652042594  Biso 1.0 Se
