# AFLOW.org Repositories
# Cu1Sb1Yb1   [HEX,HEX,hP6] (STD_PRIM doi:
data_Cu1Sb1Yb1
_pd_phase_name Cu1Sb1Yb1
_cell_length_a  4.4989492197
_cell_length_b  4.4989492197
_cell_length_c  8.0388173877
_cell_angle_alpha  90.0000000000
_cell_angle_beta  90.0000000000
_cell_angle_gamma  120.0000000000
_symmetry_space_group_name_H-M  'P1'
_symmetry_Int_Tables_Number  1
loop_
_symmetry_equiv_pos_site_id
_symmetry_equiv_pos_as_xyz
  1  x,y,z
loop_
 _atom_site_label
 _atom_site_occupancy
 _atom_site_fract_x
 _atom_site_fract_y
 _atom_site_fract_z
 _atom_site_thermal_displace_type
 _atom_site_B_iso_or_equiv
 _atom_site_type_symbol
Cu1 1.0000000000 0.3333158064 0.6666841936 0.0089522866  Biso 1.0 Cu
Cu2 1.0000000000 0.6666841936 0.3333158064 0.5089522866  Biso 1.0 Cu
Sb3 1.0000000000 0.3333182095 0.6666817905 0.4924957350  Biso 1.0 Sb
Sb4 1.0000000000 0.6666817905 0.3333182095 0.9924957350  Biso 1.0 Sb
Yb5 1.0000000000 0.0000000000 0.0000000000 0.2495519784  Biso 1.0 Yb
Yb6 1.0000000000 0.0000000000 0.0000000000 0.7495519784  Biso 1.0 Yb
