# AFLOW.org Repositories
# Cu1S2Tl1   [BCT,BCT2,tI16] (STD_PRIM doi
data_Cu1S2Tl1
_pd_phase_name Cu1S2Tl1
_cell_length_a  6.9932401717
_cell_length_b  6.9932401717
_cell_length_c  6.9932401717
_cell_angle_alpha  132.1771286273
_cell_angle_beta  132.1771286273
_cell_angle_gamma  69.9494149458
_symmetry_space_group_name_H-M  'P1'
_symmetry_Int_Tables_Number  1
loop_
_symmetry_equiv_pos_site_id
_symmetry_equiv_pos_as_xyz
  1  x,y,z
loop_
 _atom_site_label
 _atom_site_occupancy
 _atom_site_fract_x
 _atom_site_fract_y
 _atom_site_fract_z
 _atom_site_thermal_displace_type
 _atom_site_B_iso_or_equiv
 _atom_site_type_symbol
Cu1 1.0000000000 0.0000000000 0.0000000000 0.0000000000  Biso 1.0 Cu
Cu2 1.0000000000 0.2500000000 0.7500000000 0.5000000000  Biso 1.0 Cu
S3 1.0000000000 0.6250000000 0.0821105586 0.9571105586  Biso 1.0 S
S4 1.0000000000 0.1250000000 0.6678894414 0.0428894414  Biso 1.0 S
S5 1.0000000000 0.3321105586 0.3750000000 0.4571105586  Biso 1.0 S
S6 1.0000000000 0.9178894414 0.8750000000 0.5428894414  Biso 1.0 S
Tl7 1.0000000000 0.5000000000 0.5000000000 0.0000000000  Biso 1.0 Tl
Tl8 1.0000000000 0.7500000000 0.2500000000 0.5000000000  Biso 1.0 Tl
