# AFLOW.org Repositories
# Cu1S4Zr2   [FCC,FCC,cF56] (STD_PRIM doi:
data_Cu1S4Zr2
_pd_phase_name Cu1S4Zr2
_cell_length_a  7.4037285959
_cell_length_b  7.4037285959
_cell_length_c  7.4037285959
_cell_angle_alpha  60.0000000000
_cell_angle_beta  60.0000000000
_cell_angle_gamma  60.0000000000
_symmetry_space_group_name_H-M  'P1'
_symmetry_Int_Tables_Number  1
loop_
_symmetry_equiv_pos_site_id
_symmetry_equiv_pos_as_xyz
  1  x,y,z
loop_
 _atom_site_label
 _atom_site_occupancy
 _atom_site_fract_x
 _atom_site_fract_y
 _atom_site_fract_z
 _atom_site_thermal_displace_type
 _atom_site_B_iso_or_equiv
 _atom_site_type_symbol
Cu1 1.0000000000 0.0000000000 0.0000000000 0.0000000000  Biso 1.0 Cu
Cu2 1.0000000000 0.2500000000 0.2500000000 0.2500000000  Biso 1.0 Cu
S3 1.0000000000 0.8692115556 0.3769294815 0.3769294815  Biso 1.0 S
S4 1.0000000000 0.3769294815 0.3769294815 0.8692115556  Biso 1.0 S
S5 1.0000000000 0.3769294815 0.3769294815 0.3769294815  Biso 1.0 S
S6 1.0000000000 0.3769294815 0.8692115556 0.3769294815  Biso 1.0 S
S7 1.0000000000 0.8730705185 0.8730705185 0.3807884444  Biso 1.0 S
S8 1.0000000000 0.3807884444 0.8730705185 0.8730705185  Biso 1.0 S
S9 1.0000000000 0.8730705185 0.8730705185 0.8730705185  Biso 1.0 S
S10 1.0000000000 0.8730705185 0.3807884444 0.8730705185  Biso 1.0 S
Zr11 1.0000000000 0.1250000000 0.6250000000 0.6250000000  Biso 1.0 Zr
Zr12 1.0000000000 0.6250000000 0.6250000000 0.1250000000  Biso 1.0 Zr
Zr13 1.0000000000 0.6250000000 0.6250000000 0.6250000000  Biso 1.0 Zr
Zr14 1.0000000000 0.6250000000 0.1250000000 0.6250000000  Biso 1.0 Zr
