# AFLOW.org Repositories
# Cu1Sb2Ti5   [BCT,BCT1,tI32] (STD_PRIM do
data_Cu1Sb2Ti5
_pd_phase_name Cu1Sb2Ti5
_cell_length_a  7.9100465490
_cell_length_b  7.9100465490
_cell_length_c  7.9100465490
_cell_angle_alpha  96.3857661770
_cell_angle_beta  96.3857661770
_cell_angle_gamma  141.0373374438
_symmetry_space_group_name_H-M  'P1'
_symmetry_Int_Tables_Number  1
loop_
_symmetry_equiv_pos_site_id
_symmetry_equiv_pos_as_xyz
  1  x,y,z
loop_
 _atom_site_label
 _atom_site_occupancy
 _atom_site_fract_x
 _atom_site_fract_y
 _atom_site_fract_z
 _atom_site_thermal_displace_type
 _atom_site_B_iso_or_equiv
 _atom_site_type_symbol
Cu1 1.0000000000 0.2500000000 0.2500000000 0.0000000000  Biso 1.0 Cu
Cu2 1.0000000000 0.7500000000 0.7500000000 0.0000000000  Biso 1.0 Cu
Sb3 1.0000000000 0.1642483959 0.3357516041 0.5000000000  Biso 1.0 Sb
Sb4 1.0000000000 0.8357516041 0.6642483959 0.5000000000  Biso 1.0 Sb
Sb5 1.0000000000 0.3357516041 0.8357516041 0.1715032082  Biso 1.0 Sb
Sb6 1.0000000000 0.6642483959 0.1642483959 0.8284967918  Biso 1.0 Sb
Ti7 1.0000000000 0.2500000000 0.7500000000 0.5000000000  Biso 1.0 Ti
Ti8 1.0000000000 0.7500000000 0.2500000000 0.5000000000  Biso 1.0 Ti
Ti9 1.0000000000 0.0745257917 0.7849749190 0.8595007107  Biso 1.0 Ti
Ti10 1.0000000000 0.9254742083 0.2150250810 0.1404992893  Biso 1.0 Ti
Ti11 1.0000000000 0.7849749190 0.9254742083 0.7104491273  Biso 1.0 Ti
Ti12 1.0000000000 0.2150250810 0.0745257917 0.2895508727  Biso 1.0 Ti
Ti13 1.0000000000 0.4254742083 0.2849749190 0.7104491273  Biso 1.0 Ti
Ti14 1.0000000000 0.5745257917 0.7150250810 0.2895508727  Biso 1.0 Ti
Ti15 1.0000000000 0.7150250810 0.4254742083 0.1404992893  Biso 1.0 Ti
Ti16 1.0000000000 0.2849749190 0.5745257917 0.8595007107  Biso 1.0 Ti
