# AFLOW.org Repositories
# Cu1Ti2   [BCT,BCT2,tI6] (STD_PRIM doi:10
data_Cu1Ti2
_pd_phase_name Cu1Ti2
_cell_length_a  5.8599992161
_cell_length_b  5.8599992161
_cell_length_c  5.8599992161
_cell_angle_alpha  150.4841360379
_cell_angle_beta  150.4841360379
_cell_angle_gamma  42.2312054229
_symmetry_space_group_name_H-M  'P1'
_symmetry_Int_Tables_Number  1
loop_
_symmetry_equiv_pos_site_id
_symmetry_equiv_pos_as_xyz
  1  x,y,z
loop_
 _atom_site_label
 _atom_site_occupancy
 _atom_site_fract_x
 _atom_site_fract_y
 _atom_site_fract_z
 _atom_site_thermal_displace_type
 _atom_site_B_iso_or_equiv
 _atom_site_type_symbol
Cu1 1.0000000000 0.0000000000 0.0000000000 0.0000000000  Biso 1.0 Cu
Ti2 1.0000000000 0.6607025322 0.6607025322 0.0000000000  Biso 1.0 Ti
Ti3 1.0000000000 0.3392974678 0.3392974678 0.0000000000  Biso 1.0 Ti
