# AFLOW.org Repositories
# Cu1Zr1   [MCL,MCL,mP4] (STD_PRIM doi:10.
data_Cu1Zr1
_pd_phase_name Cu1Zr1
_cell_length_a  4.1156832070
_cell_length_b  3.2049948084
_cell_length_c  5.5237144414
_cell_angle_alpha  73.9692206513
_cell_angle_beta  90.0000000000
_cell_angle_gamma  90.0000000000
_symmetry_space_group_name_H-M  'P1'
_symmetry_Int_Tables_Number  1
loop_
_symmetry_equiv_pos_site_id
_symmetry_equiv_pos_as_xyz
  1  x,y,z
loop_
 _atom_site_label
 _atom_site_occupancy
 _atom_site_fract_x
 _atom_site_fract_y
 _atom_site_fract_z
 _atom_site_thermal_displace_type
 _atom_site_B_iso_or_equiv
 _atom_site_type_symbol
Cu1 1.0000000000 0.2500000000 0.9331424739 0.6370169567  Biso 1.0 Cu
Cu2 1.0000000000 0.7500000000 0.0668575261 0.3629830433  Biso 1.0 Cu
Zr3 1.0000000000 0.2500000000 0.6528041834 0.1904952287  Biso 1.0 Zr
Zr4 1.0000000000 0.7500000000 0.3471958166 0.8095047713  Biso 1.0 Zr
