# AFLOW.org Repositories
# Cu3N1Pd0.25   [TET,TET,tP17] (STD_PRIM d
data_Cu3N1Pd0.25
_pd_phase_name Cu3N1Pd0.25
_cell_length_a  7.4489063406
_cell_length_b  7.4489063406
_cell_length_c  3.9644699478
_cell_angle_alpha  90.0000000000
_cell_angle_beta  90.0000000000
_cell_angle_gamma  90.0000000000
_symmetry_space_group_name_H-M  'P1'
_symmetry_Int_Tables_Number  1
loop_
_symmetry_equiv_pos_site_id
_symmetry_equiv_pos_as_xyz
  1  x,y,z
loop_
 _atom_site_label
 _atom_site_occupancy
 _atom_site_fract_x
 _atom_site_fract_y
 _atom_site_fract_z
 _atom_site_thermal_displace_type
 _atom_site_B_iso_or_equiv
 _atom_site_type_symbol
Cu1 1.0000000000 0.5000000000 0.7553881041 0.0000000000  Biso 1.0 Cu
Cu2 1.0000000000 0.5000000000 0.2446118959 0.0000000000  Biso 1.0 Cu
Cu3 1.0000000000 0.7553881041 0.5000000000 0.0000000000  Biso 1.0 Cu
Cu4 1.0000000000 0.2446118959 0.5000000000 0.0000000000  Biso 1.0 Cu
Cu5 1.0000000000 0.0000000000 0.7504258365 0.0000000000  Biso 1.0 Cu
Cu6 1.0000000000 0.0000000000 0.2495741635 0.0000000000  Biso 1.0 Cu
Cu7 1.0000000000 0.7504258365 0.0000000000 0.0000000000  Biso 1.0 Cu
Cu8 1.0000000000 0.2495741635 0.0000000000 0.0000000000  Biso 1.0 Cu
Cu9 1.0000000000 0.7524383587 0.7524383587 0.5000000000  Biso 1.0 Cu
Cu10 1.0000000000 0.2475616413 0.2475616413 0.5000000000  Biso 1.0 Cu
Cu11 1.0000000000 0.7524383587 0.2475616413 0.5000000000  Biso 1.0 Cu
Cu12 1.0000000000 0.2475616413 0.7524383587 0.5000000000  Biso 1.0 Cu
N13 1.0000000000 0.0000000000 0.0000000000 0.0000000000  Biso 1.0 N
N14 1.0000000000 0.5000000000 0.5000000000 0.0000000000  Biso 1.0 N
N15 1.0000000000 0.5000000000 0.0000000000 0.0000000000  Biso 1.0 N
N16 1.0000000000 0.0000000000 0.5000000000 0.0000000000  Biso 1.0 N
Pd17 1.0000000000 0.5000000000 0.5000000000 0.5000000000  Biso 1.0 Pd
