# AFLOW.org Repositories
# Cu4In1Yb1   [FCC,FCC,cF24] (STD_PRIM doi
data_Cu4In1Yb1
_pd_phase_name Cu4In1Yb1
_cell_length_a  5.1383411764
_cell_length_b  5.1383411764
_cell_length_c  5.1383411764
_cell_angle_alpha  60.0000000000
_cell_angle_beta  60.0000000000
_cell_angle_gamma  60.0000000000
_symmetry_space_group_name_H-M  'P1'
_symmetry_Int_Tables_Number  1
loop_
_symmetry_equiv_pos_site_id
_symmetry_equiv_pos_as_xyz
  1  x,y,z
loop_
 _atom_site_label
 _atom_site_occupancy
 _atom_site_fract_x
 _atom_site_fract_y
 _atom_site_fract_z
 _atom_site_thermal_displace_type
 _atom_site_B_iso_or_equiv
 _atom_site_type_symbol
Cu1 1.0000000000 0.1231214002 0.6256261999 0.6256261999  Biso 1.0 Cu
Cu2 1.0000000000 0.6256261999 0.1231214002 0.6256261999  Biso 1.0 Cu
Cu3 1.0000000000 0.6256261999 0.6256261999 0.1231214002  Biso 1.0 Cu
Cu4 1.0000000000 0.6256261999 0.6256261999 0.6256261999  Biso 1.0 Cu
In5 1.0000000000 0.0000000000 0.0000000000 0.0000000000  Biso 1.0 In
Yb6 1.0000000000 0.2500000000 0.2500000000 0.2500000000  Biso 1.0 Yb
