# AFLOW.org Repositories
# Cu4O3   [BCT,BCT2,tI28] (STD_PRIM doi:10
data_Cu4O3
_pd_phase_name Cu4O3
_cell_length_a  6.4765818369
_cell_length_b  6.4765818369
_cell_length_c  6.4765818369
_cell_angle_alpha  126.0993490694
_cell_angle_beta  126.0993490694
_cell_angle_gamma  79.7249150779
_symmetry_space_group_name_H-M  'P1'
_symmetry_Int_Tables_Number  1
loop_
_symmetry_equiv_pos_site_id
_symmetry_equiv_pos_as_xyz
  1  x,y,z
loop_
 _atom_site_label
 _atom_site_occupancy
 _atom_site_fract_x
 _atom_site_fract_y
 _atom_site_fract_z
 _atom_site_thermal_displace_type
 _atom_site_B_iso_or_equiv
 _atom_site_type_symbol
Cu1 1.0000000000 0.0000000000 0.0000000000 0.0000000000  Biso 1.0 Cu
Cu2 1.0000000000 0.0000000000 0.5000000000 0.5000000000  Biso 1.0 Cu
Cu3 1.0000000000 0.5000000000 0.0000000000 0.0000000000  Biso 1.0 Cu
Cu4 1.0000000000 0.0000000000 0.0000000000 0.5000000000  Biso 1.0 Cu
Cu5 1.0000000000 0.5000000000 0.5000000000 0.0000000000  Biso 1.0 Cu
Cu6 1.0000000000 0.5000000000 0.0000000000 0.5000000000  Biso 1.0 Cu
Cu7 1.0000000000 0.0000000000 0.5000000000 0.0000000000  Biso 1.0 Cu
Cu8 1.0000000000 0.5000000000 0.5000000000 0.5000000000  Biso 1.0 Cu
O9 1.0000000000 0.8861827848 0.6361827848 0.7500000000  Biso 1.0 O
O10 1.0000000000 0.6361827848 0.8861827848 0.2500000000  Biso 1.0 O
O11 1.0000000000 0.1138172152 0.3638172152 0.2500000000  Biso 1.0 O
O12 1.0000000000 0.3638172152 0.1138172152 0.7500000000  Biso 1.0 O
O13 1.0000000000 0.6250000000 0.3750000000 0.7500000000  Biso 1.0 O
O14 1.0000000000 0.3750000000 0.6250000000 0.2500000000  Biso 1.0 O
