# AFLOW.org Repositories
# Cu6Ga5Mg2   [CUB,CUB,cP39] (STD_PRIM doi
data_Cu6Ga5Mg2
_pd_phase_name Cu6Ga5Mg2
_cell_length_a  8.2990612913
_cell_length_b  8.2990612913
_cell_length_c  8.2990612913
_cell_angle_alpha  90.0000000000
_cell_angle_beta  90.0000000000
_cell_angle_gamma  90.0000000000
_symmetry_space_group_name_H-M  'P1'
_symmetry_Int_Tables_Number  1
loop_
_symmetry_equiv_pos_site_id
_symmetry_equiv_pos_as_xyz
  1  x,y,z
loop_
 _atom_site_label
 _atom_site_occupancy
 _atom_site_fract_x
 _atom_site_fract_y
 _atom_site_fract_z
 _atom_site_thermal_displace_type
 _atom_site_B_iso_or_equiv
 _atom_site_type_symbol
Cu1 1.0000000000 0.7249769608 0.5000000000 0.5000000000  Biso 1.0 Cu
Cu2 1.0000000000 0.2750230392 0.5000000000 0.5000000000  Biso 1.0 Cu
Cu3 1.0000000000 0.5000000000 0.7249769608 0.5000000000  Biso 1.0 Cu
Cu4 1.0000000000 0.5000000000 0.2750230392 0.5000000000  Biso 1.0 Cu
Cu5 1.0000000000 0.5000000000 0.5000000000 0.2750230392  Biso 1.0 Cu
Cu6 1.0000000000 0.5000000000 0.5000000000 0.7249769608  Biso 1.0 Cu
Cu7 1.0000000000 0.0000000000 0.8364849388 0.2574126338  Biso 1.0 Cu
Cu8 1.0000000000 0.0000000000 0.1635150612 0.2574126338  Biso 1.0 Cu
Cu9 1.0000000000 0.0000000000 0.8364849388 0.7425873662  Biso 1.0 Cu
Cu10 1.0000000000 0.0000000000 0.1635150612 0.7425873662  Biso 1.0 Cu
Cu11 1.0000000000 0.7425873662 0.0000000000 0.1635150612  Biso 1.0 Cu
Cu12 1.0000000000 0.7425873662 0.0000000000 0.8364849388  Biso 1.0 Cu
Cu13 1.0000000000 0.2574126338 0.0000000000 0.1635150612  Biso 1.0 Cu
Cu14 1.0000000000 0.2574126338 0.0000000000 0.8364849388  Biso 1.0 Cu
Cu15 1.0000000000 0.8364849388 0.7425873662 0.0000000000  Biso 1.0 Cu
Cu16 1.0000000000 0.1635150612 0.7425873662 0.0000000000  Biso 1.0 Cu
Cu17 1.0000000000 0.8364849388 0.2574126338 0.0000000000  Biso 1.0 Cu
Cu18 1.0000000000 0.1635150612 0.2574126338 0.0000000000  Biso 1.0 Cu
Ga19 1.0000000000 0.0000000000 0.0000000000 0.0000000000  Biso 1.0 Ga
Ga20 1.0000000000 0.6633366440 0.5000000000 0.0000000000  Biso 1.0 Ga
Ga21 1.0000000000 0.3366633560 0.5000000000 0.0000000000  Biso 1.0 Ga
Ga22 1.0000000000 0.0000000000 0.6633366440 0.5000000000  Biso 1.0 Ga
Ga23 1.0000000000 0.0000000000 0.3366633560 0.5000000000  Biso 1.0 Ga
Ga24 1.0000000000 0.5000000000 0.0000000000 0.3366633560  Biso 1.0 Ga
Ga25 1.0000000000 0.5000000000 0.0000000000 0.6633366440  Biso 1.0 Ga
Ga26 1.0000000000 0.7175100409 0.7175100409 0.2824899591  Biso 1.0 Ga
Ga27 1.0000000000 0.2824899591 0.2824899591 0.2824899591  Biso 1.0 Ga
Ga28 1.0000000000 0.2824899591 0.7175100409 0.7175100409  Biso 1.0 Ga
Ga29 1.0000000000 0.7175100409 0.2824899591 0.7175100409  Biso 1.0 Ga
Ga30 1.0000000000 0.2824899591 0.2824899591 0.7175100409  Biso 1.0 Ga
Ga31 1.0000000000 0.7175100409 0.7175100409 0.7175100409  Biso 1.0 Ga
Ga32 1.0000000000 0.7175100409 0.2824899591 0.2824899591  Biso 1.0 Ga
Ga33 1.0000000000 0.2824899591 0.7175100409 0.2824899591  Biso 1.0 Ga
Mg34 1.0000000000 0.8184092410 0.0000000000 0.5000000000  Biso 1.0 Mg
Mg35 1.0000000000 0.1815907590 0.0000000000 0.5000000000  Biso 1.0 Mg
Mg36 1.0000000000 0.5000000000 0.8184092410 0.0000000000  Biso 1.0 Mg
Mg37 1.0000000000 0.5000000000 0.1815907590 0.0000000000  Biso 1.0 Mg
Mg38 1.0000000000 0.0000000000 0.5000000000 0.1815907590  Biso 1.0 Mg
Mg39 1.0000000000 0.0000000000 0.5000000000 0.8184092410  Biso 1.0 Mg
