# AFLOW.org Repositories
# Cu9Ga4   [CUB,CUB,cP52] (STD_PRIM doi:10
data_Cu9Ga4
_pd_phase_name Cu9Ga4
_cell_length_a  8.7538452312
_cell_length_b  8.7538452312
_cell_length_c  8.7538452312
_cell_angle_alpha  90.0000000000
_cell_angle_beta  90.0000000000
_cell_angle_gamma  90.0000000000
_symmetry_space_group_name_H-M  'P1'
_symmetry_Int_Tables_Number  1
loop_
_symmetry_equiv_pos_site_id
_symmetry_equiv_pos_as_xyz
  1  x,y,z
loop_
 _atom_site_label
 _atom_site_occupancy
 _atom_site_fract_x
 _atom_site_fract_y
 _atom_site_fract_z
 _atom_site_thermal_displace_type
 _atom_site_B_iso_or_equiv
 _atom_site_type_symbol
Cu1 1.0000000000 0.1702813946 0.1702813946 0.8297186054  Biso 1.0 Cu
Cu2 1.0000000000 0.8297186054 0.8297186054 0.8297186054  Biso 1.0 Cu
Cu3 1.0000000000 0.8297186054 0.1702813946 0.1702813946  Biso 1.0 Cu
Cu4 1.0000000000 0.1702813946 0.8297186054 0.1702813946  Biso 1.0 Cu
Cu5 1.0000000000 0.3952244732 0.3952244732 0.6047755268  Biso 1.0 Cu
Cu6 1.0000000000 0.6047755268 0.6047755268 0.6047755268  Biso 1.0 Cu
Cu7 1.0000000000 0.6047755268 0.3952244732 0.3952244732  Biso 1.0 Cu
Cu8 1.0000000000 0.3952244732 0.6047755268 0.3952244732  Biso 1.0 Cu
Cu9 1.0000000000 0.6742423678 0.6742423678 0.3257576322  Biso 1.0 Cu
Cu10 1.0000000000 0.3257576322 0.3257576322 0.3257576322  Biso 1.0 Cu
Cu11 1.0000000000 0.3257576322 0.6742423678 0.6742423678  Biso 1.0 Cu
Cu12 1.0000000000 0.6742423678 0.3257576322 0.6742423678  Biso 1.0 Cu
Cu13 1.0000000000 0.6445276676 0.0000000000 0.0000000000  Biso 1.0 Cu
Cu14 1.0000000000 0.3554723324 0.0000000000 0.0000000000  Biso 1.0 Cu
Cu15 1.0000000000 0.0000000000 0.6445276676 0.0000000000  Biso 1.0 Cu
Cu16 1.0000000000 0.0000000000 0.3554723324 0.0000000000  Biso 1.0 Cu
Cu17 1.0000000000 0.0000000000 0.0000000000 0.3554723324  Biso 1.0 Cu
Cu18 1.0000000000 0.0000000000 0.0000000000 0.6445276676  Biso 1.0 Cu
Cu19 1.0000000000 0.1450420268 0.5000000000 0.5000000000  Biso 1.0 Cu
Cu20 1.0000000000 0.8549579732 0.5000000000 0.5000000000  Biso 1.0 Cu
Cu21 1.0000000000 0.5000000000 0.1450420268 0.5000000000  Biso 1.0 Cu
Cu22 1.0000000000 0.5000000000 0.8549579732 0.5000000000  Biso 1.0 Cu
Cu23 1.0000000000 0.5000000000 0.5000000000 0.8549579732  Biso 1.0 Cu
Cu24 1.0000000000 0.5000000000 0.5000000000 0.1450420268  Biso 1.0 Cu
Cu25 1.0000000000 0.6829893698 0.6829893698 0.0293798600  Biso 1.0 Cu
Cu26 1.0000000000 0.3170106302 0.3170106302 0.0293798600  Biso 1.0 Cu
Cu27 1.0000000000 0.3170106302 0.6829893698 0.9706201400  Biso 1.0 Cu
Cu28 1.0000000000 0.6829893698 0.3170106302 0.9706201400  Biso 1.0 Cu
Cu29 1.0000000000 0.9706201400 0.6829893698 0.3170106302  Biso 1.0 Cu
Cu30 1.0000000000 0.9706201400 0.3170106302 0.6829893698  Biso 1.0 Cu
Cu31 1.0000000000 0.0293798600 0.3170106302 0.3170106302  Biso 1.0 Cu
Cu32 1.0000000000 0.0293798600 0.6829893698 0.6829893698  Biso 1.0 Cu
Cu33 1.0000000000 0.6829893698 0.9706201400 0.3170106302  Biso 1.0 Cu
Cu34 1.0000000000 0.3170106302 0.9706201400 0.6829893698  Biso 1.0 Cu
Cu35 1.0000000000 0.6829893698 0.0293798600 0.6829893698  Biso 1.0 Cu
Cu36 1.0000000000 0.3170106302 0.0293798600 0.3170106302  Biso 1.0 Cu
Ga37 1.0000000000 0.8779871742 0.8779871742 0.1220128258  Biso 1.0 Ga
Ga38 1.0000000000 0.1220128258 0.1220128258 0.1220128258  Biso 1.0 Ga
Ga39 1.0000000000 0.1220128258 0.8779871742 0.8779871742  Biso 1.0 Ga
Ga40 1.0000000000 0.8779871742 0.1220128258 0.8779871742  Biso 1.0 Ga
Ga41 1.0000000000 0.1904284098 0.1904284098 0.5338371324  Biso 1.0 Ga
Ga42 1.0000000000 0.8095715902 0.8095715902 0.5338371324  Biso 1.0 Ga
Ga43 1.0000000000 0.8095715902 0.1904284098 0.4661628676  Biso 1.0 Ga
Ga44 1.0000000000 0.1904284098 0.8095715902 0.4661628676  Biso 1.0 Ga
Ga45 1.0000000000 0.4661628676 0.1904284098 0.8095715902  Biso 1.0 Ga
Ga46 1.0000000000 0.4661628676 0.8095715902 0.1904284098  Biso 1.0 Ga
Ga47 1.0000000000 0.5338371324 0.8095715902 0.8095715902  Biso 1.0 Ga
Ga48 1.0000000000 0.5338371324 0.1904284098 0.1904284098  Biso 1.0 Ga
Ga49 1.0000000000 0.1904284098 0.4661628676 0.8095715902  Biso 1.0 Ga
Ga50 1.0000000000 0.8095715902 0.4661628676 0.1904284098  Biso 1.0 Ga
Ga51 1.0000000000 0.1904284098 0.5338371324 0.1904284098  Biso 1.0 Ga
Ga52 1.0000000000 0.8095715902 0.5338371324 0.8095715902  Biso 1.0 Ga
