# AFLOW.org Repositories
# Cu9In4   [CUB,CUB,cP52] (STD_PRIM doi:10
data_Cu9In4
_pd_phase_name Cu9In4
_cell_length_a  9.1884003114
_cell_length_b  9.1884003114
_cell_length_c  9.1884003114
_cell_angle_alpha  90.0000000000
_cell_angle_beta  90.0000000000
_cell_angle_gamma  90.0000000000
_symmetry_space_group_name_H-M  'P1'
_symmetry_Int_Tables_Number  1
loop_
_symmetry_equiv_pos_site_id
_symmetry_equiv_pos_as_xyz
  1  x,y,z
loop_
 _atom_site_label
 _atom_site_occupancy
 _atom_site_fract_x
 _atom_site_fract_y
 _atom_site_fract_z
 _atom_site_thermal_displace_type
 _atom_site_B_iso_or_equiv
 _atom_site_type_symbol
Cu1 1.0000000000 0.6697762757 0.6697762757 0.3302237243  Biso 1.0 Cu
Cu2 1.0000000000 0.3302237243 0.3302237243 0.3302237243  Biso 1.0 Cu
Cu3 1.0000000000 0.3302237243 0.6697762757 0.6697762757  Biso 1.0 Cu
Cu4 1.0000000000 0.6697762757 0.3302237243 0.6697762757  Biso 1.0 Cu
Cu5 1.0000000000 0.4019609340 0.4019609340 0.5980390660  Biso 1.0 Cu
Cu6 1.0000000000 0.5980390660 0.5980390660 0.5980390660  Biso 1.0 Cu
Cu7 1.0000000000 0.5980390660 0.4019609340 0.4019609340  Biso 1.0 Cu
Cu8 1.0000000000 0.4019609340 0.5980390660 0.4019609340  Biso 1.0 Cu
Cu9 1.0000000000 0.1671718054 0.1671718054 0.8328281946  Biso 1.0 Cu
Cu10 1.0000000000 0.8328281946 0.8328281946 0.8328281946  Biso 1.0 Cu
Cu11 1.0000000000 0.8328281946 0.1671718054 0.1671718054  Biso 1.0 Cu
Cu12 1.0000000000 0.1671718054 0.8328281946 0.1671718054  Biso 1.0 Cu
Cu13 1.0000000000 0.6424023822 0.0000000000 0.0000000000  Biso 1.0 Cu
Cu14 1.0000000000 0.3575976178 0.0000000000 0.0000000000  Biso 1.0 Cu
Cu15 1.0000000000 0.0000000000 0.6424023822 0.0000000000  Biso 1.0 Cu
Cu16 1.0000000000 0.0000000000 0.3575976178 0.0000000000  Biso 1.0 Cu
Cu17 1.0000000000 0.0000000000 0.0000000000 0.3575976178  Biso 1.0 Cu
Cu18 1.0000000000 0.0000000000 0.0000000000 0.6424023822  Biso 1.0 Cu
Cu19 1.0000000000 0.1462525195 0.5000000000 0.5000000000  Biso 1.0 Cu
Cu20 1.0000000000 0.8537474805 0.5000000000 0.5000000000  Biso 1.0 Cu
Cu21 1.0000000000 0.5000000000 0.1462525195 0.5000000000  Biso 1.0 Cu
Cu22 1.0000000000 0.5000000000 0.8537474805 0.5000000000  Biso 1.0 Cu
Cu23 1.0000000000 0.5000000000 0.5000000000 0.8537474805  Biso 1.0 Cu
Cu24 1.0000000000 0.5000000000 0.5000000000 0.1462525195  Biso 1.0 Cu
Cu25 1.0000000000 0.6761621342 0.6761621342 0.0297575150  Biso 1.0 Cu
Cu26 1.0000000000 0.3238378658 0.3238378658 0.0297575150  Biso 1.0 Cu
Cu27 1.0000000000 0.3238378658 0.6761621342 0.9702424850  Biso 1.0 Cu
Cu28 1.0000000000 0.6761621342 0.3238378658 0.9702424850  Biso 1.0 Cu
Cu29 1.0000000000 0.9702424850 0.6761621342 0.3238378658  Biso 1.0 Cu
Cu30 1.0000000000 0.9702424850 0.3238378658 0.6761621342  Biso 1.0 Cu
Cu31 1.0000000000 0.0297575150 0.3238378658 0.3238378658  Biso 1.0 Cu
Cu32 1.0000000000 0.0297575150 0.6761621342 0.6761621342  Biso 1.0 Cu
Cu33 1.0000000000 0.6761621342 0.9702424850 0.3238378658  Biso 1.0 Cu
Cu34 1.0000000000 0.3238378658 0.9702424850 0.6761621342  Biso 1.0 Cu
Cu35 1.0000000000 0.6761621342 0.0297575150 0.6761621342  Biso 1.0 Cu
Cu36 1.0000000000 0.3238378658 0.0297575150 0.3238378658  Biso 1.0 Cu
In37 1.0000000000 0.8700193172 0.8700193172 0.1299806828  Biso 1.0 In
In38 1.0000000000 0.1299806828 0.1299806828 0.1299806828  Biso 1.0 In
In39 1.0000000000 0.1299806828 0.8700193172 0.8700193172  Biso 1.0 In
In40 1.0000000000 0.8700193172 0.1299806828 0.8700193172  Biso 1.0 In
In41 1.0000000000 0.1914889637 0.1914889637 0.5357596032  Biso 1.0 In
In42 1.0000000000 0.8085110363 0.8085110363 0.5357596032  Biso 1.0 In
In43 1.0000000000 0.8085110363 0.1914889637 0.4642403968  Biso 1.0 In
In44 1.0000000000 0.1914889637 0.8085110363 0.4642403968  Biso 1.0 In
In45 1.0000000000 0.4642403968 0.1914889637 0.8085110363  Biso 1.0 In
In46 1.0000000000 0.4642403968 0.8085110363 0.1914889637  Biso 1.0 In
In47 1.0000000000 0.5357596032 0.8085110363 0.8085110363  Biso 1.0 In
In48 1.0000000000 0.5357596032 0.1914889637 0.1914889637  Biso 1.0 In
In49 1.0000000000 0.1914889637 0.4642403968 0.8085110363  Biso 1.0 In
In50 1.0000000000 0.8085110363 0.4642403968 0.1914889637  Biso 1.0 In
In51 1.0000000000 0.1914889637 0.5357596032 0.1914889637  Biso 1.0 In
In52 1.0000000000 0.8085110363 0.5357596032 0.8085110363  Biso 1.0 In
