# AFLOW.org Repositories
# Dy1Ga3Ru1   [CUB,CUB,cP15] (STD_PRIM doi
data_Dy1Ga3Ru1
_pd_phase_name Dy1Ga3Ru1
_cell_length_a  6.4105539731
_cell_length_b  6.4105539731
_cell_length_c  6.4105539731
_cell_angle_alpha  90.0000000000
_cell_angle_beta  90.0000000000
_cell_angle_gamma  90.0000000000
_symmetry_space_group_name_H-M  'P1'
_symmetry_Int_Tables_Number  1
loop_
_symmetry_equiv_pos_site_id
_symmetry_equiv_pos_as_xyz
  1  x,y,z
loop_
 _atom_site_label
 _atom_site_occupancy
 _atom_site_fract_x
 _atom_site_fract_y
 _atom_site_fract_z
 _atom_site_thermal_displace_type
 _atom_site_B_iso_or_equiv
 _atom_site_type_symbol
Dy1 1.0000000000 0.0000000000 0.5000000000 0.5000000000  Biso 1.0 Dy
Dy2 1.0000000000 0.5000000000 0.0000000000 0.5000000000  Biso 1.0 Dy
Dy3 1.0000000000 0.5000000000 0.5000000000 0.0000000000  Biso 1.0 Dy
Ga4 1.0000000000 0.5000000000 0.5000000000 0.5000000000  Biso 1.0 Ga
Ga5 1.0000000000 0.7890114934 0.7890114934 0.2109885066  Biso 1.0 Ga
Ga6 1.0000000000 0.2109885066 0.2109885066 0.2109885066  Biso 1.0 Ga
Ga7 1.0000000000 0.2109885066 0.7890114934 0.7890114934  Biso 1.0 Ga
Ga8 1.0000000000 0.7890114934 0.2109885066 0.7890114934  Biso 1.0 Ga
Ga9 1.0000000000 0.7890114934 0.7890114934 0.7890114934  Biso 1.0 Ga
Ga10 1.0000000000 0.2109885066 0.2109885066 0.7890114934  Biso 1.0 Ga
Ga11 1.0000000000 0.7890114934 0.2109885066 0.2109885066  Biso 1.0 Ga
Ga12 1.0000000000 0.2109885066 0.7890114934 0.2109885066  Biso 1.0 Ga
Ru13 1.0000000000 0.5000000000 0.0000000000 0.0000000000  Biso 1.0 Ru
Ru14 1.0000000000 0.0000000000 0.5000000000 0.0000000000  Biso 1.0 Ru
Ru15 1.0000000000 0.0000000000 0.0000000000 0.5000000000  Biso 1.0 Ru
