# AFLOW.org Repositories
# Dy1Ge1Sn1   [ORCC,ORCC,oS12] (STD_PRIM d
data_Dy1Ge1Sn1
_pd_phase_name Dy1Ge1Sn1
_cell_length_a  8.4569879416
_cell_length_b  8.4569879416
_cell_length_c  4.1143301722
_cell_angle_alpha  90.0000000000
_cell_angle_beta  90.0000000000
_cell_angle_gamma  150.5584967423
_symmetry_space_group_name_H-M  'P1'
_symmetry_Int_Tables_Number  1
loop_
_symmetry_equiv_pos_site_id
_symmetry_equiv_pos_as_xyz
  1  x,y,z
loop_
 _atom_site_label
 _atom_site_occupancy
 _atom_site_fract_x
 _atom_site_fract_y
 _atom_site_fract_z
 _atom_site_thermal_displace_type
 _atom_site_B_iso_or_equiv
 _atom_site_type_symbol
Dy1 1.0000000000 0.0936426610 0.9063573390 0.7500000000  Biso 1.0 Dy
Dy2 1.0000000000 0.9063573390 0.0936426610 0.2500000000  Biso 1.0 Dy
Ge3 1.0000000000 0.4467872455 0.5532127545 0.7500000000  Biso 1.0 Ge
Ge4 1.0000000000 0.5532127545 0.4467872455 0.2500000000  Biso 1.0 Ge
Sn5 1.0000000000 0.7484777597 0.2515222403 0.7500000000  Biso 1.0 Sn
Sn6 1.0000000000 0.2515222403 0.7484777597 0.2500000000  Biso 1.0 Sn
