# AFLOW.org Repositories
# Dy1Ga2Ni1   [ORCC,ORCC,oS16] (STD_PRIM d
data_Dy1Ga2Ni1
_pd_phase_name Dy1Ga2Ni1
_cell_length_a  5.4109371836
_cell_length_b  5.4109371836
_cell_length_c  6.6318521711
_cell_angle_alpha  90.0000000000
_cell_angle_beta  90.0000000000
_cell_angle_gamma  135.2641197062
_symmetry_space_group_name_H-M  'P1'
_symmetry_Int_Tables_Number  1
loop_
_symmetry_equiv_pos_site_id
_symmetry_equiv_pos_as_xyz
  1  x,y,z
loop_
 _atom_site_label
 _atom_site_occupancy
 _atom_site_fract_x
 _atom_site_fract_y
 _atom_site_fract_z
 _atom_site_thermal_displace_type
 _atom_site_B_iso_or_equiv
 _atom_site_type_symbol
Dy1 1.0000000000 0.5716319571 0.4283680429 0.7500000000  Biso 1.0 Dy
Dy2 1.0000000000 0.4283680429 0.5716319571 0.2500000000  Biso 1.0 Dy
Ga3 1.0000000000 0.8559938307 0.1440061693 0.9468218926  Biso 1.0 Ga
Ga4 1.0000000000 0.1440061693 0.8559938307 0.4468218926  Biso 1.0 Ga
Ga5 1.0000000000 0.8559938307 0.1440061693 0.5531781074  Biso 1.0 Ga
Ga6 1.0000000000 0.1440061693 0.8559938307 0.0531781074  Biso 1.0 Ga
Ni7 1.0000000000 0.2904765495 0.7095234505 0.7500000000  Biso 1.0 Ni
Ni8 1.0000000000 0.7095234505 0.2904765495 0.2500000000  Biso 1.0 Ni
