# AFLOW.org Repositories
# Dy1Ir1Si1   [ORC,ORC,oP12] (STD_PRIM doi
data_Dy1Ir1Si1
_pd_phase_name Dy1Ir1Si1
_cell_length_a  4.2398261121
_cell_length_b  6.8697546338
_cell_length_c  7.3602431560
_cell_angle_alpha  90.0000000000
_cell_angle_beta  90.0000000000
_cell_angle_gamma  90.0000000000
_symmetry_space_group_name_H-M  'P1'
_symmetry_Int_Tables_Number  1
loop_
_symmetry_equiv_pos_site_id
_symmetry_equiv_pos_as_xyz
  1  x,y,z
loop_
 _atom_site_label
 _atom_site_occupancy
 _atom_site_fract_x
 _atom_site_fract_y
 _atom_site_fract_z
 _atom_site_thermal_displace_type
 _atom_site_B_iso_or_equiv
 _atom_site_type_symbol
Dy1 1.0000000000 0.2500000000 0.9980733565 0.3128170318  Biso 1.0 Dy
Dy2 1.0000000000 0.7500000000 0.5019266435 0.8128170318  Biso 1.0 Dy
Dy3 1.0000000000 0.7500000000 0.0019266435 0.6871829682  Biso 1.0 Dy
Dy4 1.0000000000 0.2500000000 0.4980733565 0.1871829682  Biso 1.0 Dy
Ir5 1.0000000000 0.2500000000 0.1561859493 0.9298032681  Biso 1.0 Ir
Ir6 1.0000000000 0.7500000000 0.3438140507 0.4298032681  Biso 1.0 Ir
Ir7 1.0000000000 0.7500000000 0.8438140507 0.0701967319  Biso 1.0 Ir
Ir8 1.0000000000 0.2500000000 0.6561859493 0.5701967319  Biso 1.0 Ir
Si9 1.0000000000 0.2500000000 0.2997007347 0.6063809724  Biso 1.0 Si
Si10 1.0000000000 0.7500000000 0.2002992653 0.1063809724  Biso 1.0 Si
Si11 1.0000000000 0.7500000000 0.7002992653 0.3936190276  Biso 1.0 Si
Si12 1.0000000000 0.2500000000 0.7997007347 0.8936190276  Biso 1.0 Si
