# AFLOW.org Repositories
# Dy1Mg2   [HEX,HEX,hP12] (STD_PRIM doi:10
data_Dy1Mg2
_pd_phase_name Dy1Mg2
_cell_length_a  6.0486729433
_cell_length_b  6.0486729433
_cell_length_c  9.7863228572
_cell_angle_alpha  90.0000000000
_cell_angle_beta  90.0000000000
_cell_angle_gamma  120.0000000000
_symmetry_space_group_name_H-M  'P1'
_symmetry_Int_Tables_Number  1
loop_
_symmetry_equiv_pos_site_id
_symmetry_equiv_pos_as_xyz
  1  x,y,z
loop_
 _atom_site_label
 _atom_site_occupancy
 _atom_site_fract_x
 _atom_site_fract_y
 _atom_site_fract_z
 _atom_site_thermal_displace_type
 _atom_site_B_iso_or_equiv
 _atom_site_type_symbol
Dy1 1.0000000000 0.6666672832 0.3333345663 0.0637451131  Biso 1.0 Dy
Dy2 1.0000000000 0.3333327168 0.6666654337 0.5637451131  Biso 1.0 Dy
Dy3 1.0000000000 0.3333327168 0.6666654337 0.9362548869  Biso 1.0 Dy
Dy4 1.0000000000 0.6666672832 0.3333345663 0.4362548869  Biso 1.0 Dy
Mg5 1.0000000000 0.0000000000 0.0000000000 0.0000000000  Biso 1.0 Mg
Mg6 1.0000000000 0.0000000000 0.0000000000 0.5000000000  Biso 1.0 Mg
Mg7 1.0000000000 0.6583877289 0.8291881580 0.2500000000  Biso 1.0 Mg
Mg8 1.0000000000 0.1708004290 0.8291881580 0.2500000000  Biso 1.0 Mg
Mg9 1.0000000000 0.1708130598 0.3416261196 0.2500000000  Biso 1.0 Mg
Mg10 1.0000000000 0.3416122711 0.1708118420 0.7500000000  Biso 1.0 Mg
Mg11 1.0000000000 0.8291995710 0.1708118420 0.7500000000  Biso 1.0 Mg
Mg12 1.0000000000 0.8291869402 0.6583738804 0.7500000000  Biso 1.0 Mg
