# AFLOW.org Repositories
# Dy1O4V1   [BCT,BCT1,tI24] (STD_PRIM doi:
data_Dy1O4V1
_pd_phase_name Dy1O4V1
_cell_length_a  6.0056900253
_cell_length_b  6.0056900253
_cell_length_c  6.0056900253
_cell_angle_alpha  106.2106269066
_cell_angle_beta  106.2106269066
_cell_angle_gamma  116.2099444609
_symmetry_space_group_name_H-M  'P1'
_symmetry_Int_Tables_Number  1
loop_
_symmetry_equiv_pos_site_id
_symmetry_equiv_pos_as_xyz
  1  x,y,z
loop_
 _atom_site_label
 _atom_site_occupancy
 _atom_site_fract_x
 _atom_site_fract_y
 _atom_site_fract_z
 _atom_site_thermal_displace_type
 _atom_site_B_iso_or_equiv
 _atom_site_type_symbol
Dy1 1.0000000000 0.8750000000 0.1250000000 0.7500000000  Biso 1.0 Dy
Dy2 1.0000000000 0.1250000000 0.8750000000 0.2500000000  Biso 1.0 Dy
O3 1.0000000000 0.2645707636 0.1991372476 0.0654335160  Biso 1.0 O
O4 1.0000000000 0.6337037316 0.1991372476 0.4345664840  Biso 1.0 O
O5 1.0000000000 0.1991372476 0.6337037316 0.9345664840  Biso 1.0 O
O6 1.0000000000 0.1991372476 0.2645707636 0.5654335160  Biso 1.0 O
O7 1.0000000000 0.3662962684 0.8008627524 0.5654335160  Biso 1.0 O
O8 1.0000000000 0.7354292364 0.8008627524 0.9345664840  Biso 1.0 O
O9 1.0000000000 0.8008627524 0.3662962684 0.0654335160  Biso 1.0 O
O10 1.0000000000 0.8008627524 0.7354292364 0.4345664840  Biso 1.0 O
V11 1.0000000000 0.6250000000 0.3750000000 0.2500000000  Biso 1.0 V
V12 1.0000000000 0.3750000000 0.6250000000 0.7500000000  Biso 1.0 V
