# AFLOW.org Repositories
# Dy1O4V1   [BCT,BCT2,tI24] (STD_PRIM doi:
data_Dy1O4V1
_pd_phase_name Dy1O4V1
_cell_length_a  6.6905893996
_cell_length_b  6.6905893996
_cell_length_c  6.6905893996
_cell_angle_alpha  135.3436544115
_cell_angle_beta  135.3436544115
_cell_angle_gamma  64.9967046890
_symmetry_space_group_name_H-M  'P1'
_symmetry_Int_Tables_Number  1
loop_
_symmetry_equiv_pos_site_id
_symmetry_equiv_pos_as_xyz
  1  x,y,z
loop_
 _atom_site_label
 _atom_site_occupancy
 _atom_site_fract_x
 _atom_site_fract_y
 _atom_site_fract_z
 _atom_site_thermal_displace_type
 _atom_site_B_iso_or_equiv
 _atom_site_type_symbol
Dy1 1.0000000000 0.3750000000 0.1250000000 0.7500000000  Biso 1.0 Dy
Dy2 1.0000000000 0.6250000000 0.8750000000 0.2500000000  Biso 1.0 Dy
O3 1.0000000000 0.6997924739 0.8520070138 0.6405980910  Biso 1.0 O
O4 1.0000000000 0.2114089228 0.5591943829 0.8594019090  Biso 1.0 O
O5 1.0000000000 0.0591943829 0.1997924739 0.8477854601  Biso 1.0 O
O6 1.0000000000 0.3520070138 0.7114089228 0.6522145399  Biso 1.0 O
O7 1.0000000000 0.3002075261 0.1479929862 0.3594019090  Biso 1.0 O
O8 1.0000000000 0.7885910772 0.4408056171 0.1405980910  Biso 1.0 O
O9 1.0000000000 0.9408056171 0.8002075261 0.1522145399  Biso 1.0 O
O10 1.0000000000 0.6479929862 0.2885910772 0.3477854601  Biso 1.0 O
V11 1.0000000000 0.8750000000 0.6250000000 0.7500000000  Biso 1.0 V
V12 1.0000000000 0.1250000000 0.3750000000 0.2500000000  Biso 1.0 V
