# AFLOW.org Repositories
# Dy1Pd1Sb1   [HEX,HEX,hP6] (STD_PRIM doi:
data_Dy1Pd1Sb1
_pd_phase_name Dy1Pd1Sb1
_cell_length_a  4.5946102590
_cell_length_b  4.5946102590
_cell_length_c  7.4084111959
_cell_angle_alpha  90.0000000000
_cell_angle_beta  90.0000000000
_cell_angle_gamma  120.0000000000
_symmetry_space_group_name_H-M  'P1'
_symmetry_Int_Tables_Number  1
loop_
_symmetry_equiv_pos_site_id
_symmetry_equiv_pos_as_xyz
  1  x,y,z
loop_
 _atom_site_label
 _atom_site_occupancy
 _atom_site_fract_x
 _atom_site_fract_y
 _atom_site_fract_z
 _atom_site_thermal_displace_type
 _atom_site_B_iso_or_equiv
 _atom_site_type_symbol
Dy1 1.0000000000 0.0000000000 0.0000000000 0.0000000000  Biso 1.0 Dy
Dy2 1.0000000000 0.0000000000 0.0000000000 0.4991378510  Biso 1.0 Dy
Pd3 1.0000000000 0.3333158898 0.6666841102 0.3256674650  Biso 1.0 Pd
Pd4 1.0000000000 0.6666841102 0.3333158898 0.8256674650  Biso 1.0 Pd
Sb5 1.0000000000 0.3333201225 0.6666798775 0.7242146840  Biso 1.0 Sb
Sb6 1.0000000000 0.6666798775 0.3333201225 0.2242146840  Biso 1.0 Sb
