# AFLOW.org Repositories
# Dy1Pd1Sn1   [ORC,ORC,oP12] (STD_PRIM doi
data_Dy1Pd1Sn1
_pd_phase_name Dy1Pd1Sn1
_cell_length_a  4.6689635571
_cell_length_b  7.2326902144
_cell_length_c  7.9957466481
_cell_angle_alpha  90.0000000000
_cell_angle_beta  90.0000000000
_cell_angle_gamma  90.0000000000
_symmetry_space_group_name_H-M  'P1'
_symmetry_Int_Tables_Number  1
loop_
_symmetry_equiv_pos_site_id
_symmetry_equiv_pos_as_xyz
  1  x,y,z
loop_
 _atom_site_label
 _atom_site_occupancy
 _atom_site_fract_x
 _atom_site_fract_y
 _atom_site_fract_z
 _atom_site_thermal_displace_type
 _atom_site_B_iso_or_equiv
 _atom_site_type_symbol
Dy1 1.0000000000 0.2500000000 0.9913040991 0.2927326416  Biso 1.0 Dy
Dy2 1.0000000000 0.7500000000 0.5086959009 0.7927326416  Biso 1.0 Dy
Dy3 1.0000000000 0.7500000000 0.0086959009 0.7072673584  Biso 1.0 Dy
Dy4 1.0000000000 0.2500000000 0.4913040991 0.2072673584  Biso 1.0 Dy
Pd5 1.0000000000 0.2500000000 0.2044681180 0.9165479399  Biso 1.0 Pd
Pd6 1.0000000000 0.7500000000 0.2955318820 0.4165479399  Biso 1.0 Pd
Pd7 1.0000000000 0.7500000000 0.7955318820 0.0834520601  Biso 1.0 Pd
Pd8 1.0000000000 0.2500000000 0.7044681180 0.5834520601  Biso 1.0 Pd
Sn9 1.0000000000 0.2500000000 0.3025869578 0.5876952338  Biso 1.0 Sn
Sn10 1.0000000000 0.7500000000 0.1974130422 0.0876952338  Biso 1.0 Sn
Sn11 1.0000000000 0.7500000000 0.6974130422 0.4123047662  Biso 1.0 Sn
Sn12 1.0000000000 0.2500000000 0.8025869578 0.9123047662  Biso 1.0 Sn
