# AFLOW.org Repositories
# Dy1Sn2   [ORCC,ORCC,oS12] (STD_PRIM doi:
data_Dy1Sn2
_pd_phase_name Dy1Sn2
_cell_length_a  8.5685861736
_cell_length_b  8.5685861736
_cell_length_c  4.4051400238
_cell_angle_alpha  90.0000000000
_cell_angle_beta  90.0000000000
_cell_angle_gamma  149.8225410088
_symmetry_space_group_name_H-M  'P1'
_symmetry_Int_Tables_Number  1
loop_
_symmetry_equiv_pos_site_id
_symmetry_equiv_pos_as_xyz
  1  x,y,z
loop_
 _atom_site_label
 _atom_site_occupancy
 _atom_site_fract_x
 _atom_site_fract_y
 _atom_site_fract_z
 _atom_site_thermal_displace_type
 _atom_site_B_iso_or_equiv
 _atom_site_type_symbol
Dy1 1.0000000000 0.0983880220 0.9016119780 0.7500000000  Biso 1.0 Dy
Dy2 1.0000000000 0.9016119780 0.0983880220 0.2500000000  Biso 1.0 Dy
Sn3 1.0000000000 0.4356251790 0.5643748210 0.7500000000  Biso 1.0 Sn
Sn4 1.0000000000 0.5643748210 0.4356251790 0.2500000000  Biso 1.0 Sn
Sn5 1.0000000000 0.7492889921 0.2507110079 0.7500000000  Biso 1.0 Sn
Sn6 1.0000000000 0.2507110079 0.7492889921 0.2500000000  Biso 1.0 Sn
