# AFLOW.org Repositories
# Dy1Si2   [BCT,BCT2,tI12] (STD_PRIM doi:1
data_Dy1Si2
_pd_phase_name Dy1Si2
_cell_length_a  7.8586075240
_cell_length_b  7.8586075240
_cell_length_c  7.8586075240
_cell_angle_alpha  150.7962217977
_cell_angle_beta  150.7962217977
_cell_angle_gamma  41.7738775263
_symmetry_space_group_name_H-M  'P1'
_symmetry_Int_Tables_Number  1
loop_
_symmetry_equiv_pos_site_id
_symmetry_equiv_pos_as_xyz
  1  x,y,z
loop_
 _atom_site_label
 _atom_site_occupancy
 _atom_site_fract_x
 _atom_site_fract_y
 _atom_site_fract_z
 _atom_site_thermal_displace_type
 _atom_site_B_iso_or_equiv
 _atom_site_type_symbol
Dy1 1.0000000000 0.0000000000 0.0000000000 0.0000000000  Biso 1.0 Dy
Dy2 1.0000000000 0.7500000000 0.2500000000 0.5000000000  Biso 1.0 Dy
Si3 1.0000000000 0.4182561010 0.4182561010 0.0000000000  Biso 1.0 Si
Si4 1.0000000000 0.1682561010 0.6682561010 0.5000000000  Biso 1.0 Si
Si5 1.0000000000 0.3317438990 0.8317438990 0.5000000000  Biso 1.0 Si
Si6 1.0000000000 0.5817438990 0.5817438990 0.0000000000  Biso 1.0 Si
