# AFLOW.org Repositories
# Dy2In1Pd2   [TET,TET,tP10] (STD_PRIM doi
data_Dy2In1Pd2
_pd_phase_name Dy2In1Pd2
_cell_length_a  7.7171443006
_cell_length_b  7.7171443006
_cell_length_c  3.6953535392
_cell_angle_alpha  90.0000000000
_cell_angle_beta  90.0000000000
_cell_angle_gamma  90.0000000000
_symmetry_space_group_name_H-M  'P1'
_symmetry_Int_Tables_Number  1
loop_
_symmetry_equiv_pos_site_id
_symmetry_equiv_pos_as_xyz
  1  x,y,z
loop_
 _atom_site_label
 _atom_site_occupancy
 _atom_site_fract_x
 _atom_site_fract_y
 _atom_site_fract_z
 _atom_site_thermal_displace_type
 _atom_site_B_iso_or_equiv
 _atom_site_type_symbol
Dy1 1.0000000000 0.1737315585 0.6737315585 0.5000000000  Biso 1.0 Dy
Dy2 1.0000000000 0.8262684415 0.3262684415 0.5000000000  Biso 1.0 Dy
Dy3 1.0000000000 0.3262684415 0.1737315585 0.5000000000  Biso 1.0 Dy
Dy4 1.0000000000 0.6737315585 0.8262684415 0.5000000000  Biso 1.0 Dy
In5 1.0000000000 0.0000000000 0.0000000000 0.0000000000  Biso 1.0 In
In6 1.0000000000 0.5000000000 0.5000000000 0.0000000000  Biso 1.0 In
Pd7 1.0000000000 0.3713642346 0.8713642346 0.0000000000  Biso 1.0 Pd
Pd8 1.0000000000 0.6286357654 0.1286357654 0.0000000000  Biso 1.0 Pd
Pd9 1.0000000000 0.1286357654 0.3713642346 0.0000000000  Biso 1.0 Pd
Pd10 1.0000000000 0.8713642346 0.6286357654 0.0000000000  Biso 1.0 Pd
