# AFLOW.org Repositories
# Dy2Mg1Si2   [TET,TET,tP10] (STD_PRIM doi
data_Dy2Mg1Si2
_pd_phase_name Dy2Mg1Si2
_cell_length_a  7.1719147860
_cell_length_b  7.1719147860
_cell_length_c  4.2097339359
_cell_angle_alpha  90.0000000000
_cell_angle_beta  90.0000000000
_cell_angle_gamma  90.0000000000
_symmetry_space_group_name_H-M  'P1'
_symmetry_Int_Tables_Number  1
loop_
_symmetry_equiv_pos_site_id
_symmetry_equiv_pos_as_xyz
  1  x,y,z
loop_
 _atom_site_label
 _atom_site_occupancy
 _atom_site_fract_x
 _atom_site_fract_y
 _atom_site_fract_z
 _atom_site_thermal_displace_type
 _atom_site_B_iso_or_equiv
 _atom_site_type_symbol
Dy1 1.0000000000 0.1781712473 0.6781712473 0.5000000000  Biso 1.0 Dy
Dy2 1.0000000000 0.8218287527 0.3218287527 0.5000000000  Biso 1.0 Dy
Dy3 1.0000000000 0.3218287527 0.1781712473 0.5000000000  Biso 1.0 Dy
Dy4 1.0000000000 0.6781712473 0.8218287527 0.5000000000  Biso 1.0 Dy
Mg5 1.0000000000 0.0000000000 0.0000000000 0.0000000000  Biso 1.0 Mg
Mg6 1.0000000000 0.5000000000 0.5000000000 0.0000000000  Biso 1.0 Mg
Si7 1.0000000000 0.3819871446 0.8819871446 0.0000000000  Biso 1.0 Si
Si8 1.0000000000 0.6180128554 0.1180128554 0.0000000000  Biso 1.0 Si
Si9 1.0000000000 0.1180128554 0.3819871446 0.0000000000  Biso 1.0 Si
Si10 1.0000000000 0.8819871446 0.6180128554 0.0000000000  Biso 1.0 Si
