# AFLOW.org Repositories
# Dy2O7Ru2   [FCC,FCC,cF88] (STD_PRIM doi:
data_Dy2O7Ru2
_pd_phase_name Dy2O7Ru2
_cell_length_a  7.2561130775
_cell_length_b  7.2561130775
_cell_length_c  7.2561130775
_cell_angle_alpha  60.0000000000
_cell_angle_beta  60.0000000000
_cell_angle_gamma  60.0000000000
_symmetry_space_group_name_H-M  'P1'
_symmetry_Int_Tables_Number  1
loop_
_symmetry_equiv_pos_site_id
_symmetry_equiv_pos_as_xyz
  1  x,y,z
loop_
 _atom_site_label
 _atom_site_occupancy
 _atom_site_fract_x
 _atom_site_fract_y
 _atom_site_fract_z
 _atom_site_thermal_displace_type
 _atom_site_B_iso_or_equiv
 _atom_site_type_symbol
Dy1 1.0000000000 0.6250000000 0.6250000000 0.6250000000  Biso 1.0 Dy
Dy2 1.0000000000 0.6250000000 0.6250000000 0.1250000000  Biso 1.0 Dy
Dy3 1.0000000000 0.6250000000 0.1250000000 0.6250000000  Biso 1.0 Dy
Dy4 1.0000000000 0.1250000000 0.6250000000 0.6250000000  Biso 1.0 Dy
O5 1.0000000000 0.7869365922 0.2130634078 0.2130634078  Biso 1.0 O
O6 1.0000000000 0.2130634078 0.7869365922 0.7869365922  Biso 1.0 O
O7 1.0000000000 0.2130634078 0.7869365922 0.2130634078  Biso 1.0 O
O8 1.0000000000 0.7869365922 0.2130634078 0.7869365922  Biso 1.0 O
O9 1.0000000000 0.2130634078 0.2130634078 0.7869365922  Biso 1.0 O
O10 1.0000000000 0.7869365922 0.7869365922 0.2130634078  Biso 1.0 O
O11 1.0000000000 0.4630634078 0.0369365922 0.4630634078  Biso 1.0 O
O12 1.0000000000 0.0369365922 0.4630634078 0.0369365922  Biso 1.0 O
O13 1.0000000000 0.0369365922 0.4630634078 0.4630634078  Biso 1.0 O
O14 1.0000000000 0.4630634078 0.0369365922 0.0369365922  Biso 1.0 O
O15 1.0000000000 0.0369365922 0.0369365922 0.4630634078  Biso 1.0 O
O16 1.0000000000 0.4630634078 0.4630634078 0.0369365922  Biso 1.0 O
O17 1.0000000000 0.5000000000 0.5000000000 0.5000000000  Biso 1.0 O
O18 1.0000000000 0.7500000000 0.7500000000 0.7500000000  Biso 1.0 O
Ru19 1.0000000000 0.1250000000 0.1250000000 0.1250000000  Biso 1.0 Ru
Ru20 1.0000000000 0.1250000000 0.1250000000 0.6250000000  Biso 1.0 Ru
Ru21 1.0000000000 0.1250000000 0.6250000000 0.1250000000  Biso 1.0 Ru
Ru22 1.0000000000 0.6250000000 0.1250000000 0.1250000000  Biso 1.0 Ru
