# AFLOW.org Repositories
# Dy3Ga1O6   [ORCC,ORCC,oS40] (STD_PRIM do
data_Dy3Ga1O6
_pd_phase_name Dy3Ga1O6
_cell_length_a  7.1389678604
_cell_length_b  7.1389678604
_cell_length_c  5.4446069510
_cell_angle_alpha  90.0000000000
_cell_angle_beta  90.0000000000
_cell_angle_gamma  102.8310255323
_symmetry_space_group_name_H-M  'P1'
_symmetry_Int_Tables_Number  1
loop_
_symmetry_equiv_pos_site_id
_symmetry_equiv_pos_as_xyz
  1  x,y,z
loop_
 _atom_site_label
 _atom_site_occupancy
 _atom_site_fract_x
 _atom_site_fract_y
 _atom_site_fract_z
 _atom_site_thermal_displace_type
 _atom_site_B_iso_or_equiv
 _atom_site_type_symbol
Dy1 1.0000000000 0.0880432876 0.2988207292 0.4699724090  Biso 1.0 Dy
Dy2 1.0000000000 0.9119567124 0.7011792708 0.9699724090  Biso 1.0 Dy
Dy3 1.0000000000 0.2988207292 0.0880432876 0.9699724090  Biso 1.0 Dy
Dy4 1.0000000000 0.7011792708 0.9119567124 0.4699724090  Biso 1.0 Dy
Dy5 1.0000000000 0.6018871140 0.3981128860 0.4230167456  Biso 1.0 Dy
Dy6 1.0000000000 0.3981128860 0.6018871140 0.9230167456  Biso 1.0 Dy
Ga7 1.0000000000 0.8066162314 0.1933837686 0.0000000000  Biso 1.0 Ga
Ga8 1.0000000000 0.1933837686 0.8066162314 0.5004021623  Biso 1.0 Ga
O9 1.0000000000 0.8940258025 0.4218560442 0.1789821984  Biso 1.0 O
O10 1.0000000000 0.1059741975 0.5781439558 0.6789821984  Biso 1.0 O
O11 1.0000000000 0.4218560442 0.8940258025 0.6789821984  Biso 1.0 O
O12 1.0000000000 0.5781439558 0.1059741975 0.1789821984  Biso 1.0 O
O13 1.0000000000 0.3236607459 0.3558153142 0.1978006265  Biso 1.0 O
O14 1.0000000000 0.6763392541 0.6441846858 0.6978006265  Biso 1.0 O
O15 1.0000000000 0.3558153142 0.3236607459 0.6978006265  Biso 1.0 O
O16 1.0000000000 0.6441846858 0.6763392541 0.1978006265  Biso 1.0 O
O17 1.0000000000 0.9613089152 0.0386910848 0.1397424077  Biso 1.0 O
O18 1.0000000000 0.0386910848 0.9613089152 0.6397424077  Biso 1.0 O
O19 1.0000000000 0.7840803953 0.2159196047 0.6631982166  Biso 1.0 O
O20 1.0000000000 0.2159196047 0.7840803953 0.1631982166  Biso 1.0 O
