# AFLOW.org Repositories
# Dy3Ge13Rh4   [CUB,CUB,cP40] (STD_PRIM do
data_Dy3Ge13Rh4
_pd_phase_name Dy3Ge13Rh4
_cell_length_a  8.9994413003
_cell_length_b  8.9994413003
_cell_length_c  8.9994413003
_cell_angle_alpha  90.0000000000
_cell_angle_beta  90.0000000000
_cell_angle_gamma  90.0000000000
_symmetry_space_group_name_H-M  'P1'
_symmetry_Int_Tables_Number  1
loop_
_symmetry_equiv_pos_site_id
_symmetry_equiv_pos_as_xyz
  1  x,y,z
loop_
 _atom_site_label
 _atom_site_occupancy
 _atom_site_fract_x
 _atom_site_fract_y
 _atom_site_fract_z
 _atom_site_thermal_displace_type
 _atom_site_B_iso_or_equiv
 _atom_site_type_symbol
Dy1 1.0000000000 0.7500000000 0.0000000000 0.5000000000  Biso 1.0 Dy
Dy2 1.0000000000 0.2500000000 0.0000000000 0.5000000000  Biso 1.0 Dy
Dy3 1.0000000000 0.5000000000 0.7500000000 0.0000000000  Biso 1.0 Dy
Dy4 1.0000000000 0.5000000000 0.2500000000 0.0000000000  Biso 1.0 Dy
Dy5 1.0000000000 0.0000000000 0.5000000000 0.2500000000  Biso 1.0 Dy
Dy6 1.0000000000 0.0000000000 0.5000000000 0.7500000000  Biso 1.0 Dy
Ge7 1.0000000000 0.0000000000 0.0000000000 0.0000000000  Biso 1.0 Ge
Ge8 1.0000000000 0.5000000000 0.5000000000 0.5000000000  Biso 1.0 Ge
Ge9 1.0000000000 0.0000000000 0.8527994188 0.3102408660  Biso 1.0 Ge
Ge10 1.0000000000 0.0000000000 0.1472005812 0.3102408660  Biso 1.0 Ge
Ge11 1.0000000000 0.0000000000 0.8527994188 0.6897591340  Biso 1.0 Ge
Ge12 1.0000000000 0.0000000000 0.1472005812 0.6897591340  Biso 1.0 Ge
Ge13 1.0000000000 0.6897591340 0.0000000000 0.1472005812  Biso 1.0 Ge
Ge14 1.0000000000 0.6897591340 0.0000000000 0.8527994188  Biso 1.0 Ge
Ge15 1.0000000000 0.3102408660 0.0000000000 0.1472005812  Biso 1.0 Ge
Ge16 1.0000000000 0.3102408660 0.0000000000 0.8527994188  Biso 1.0 Ge
Ge17 1.0000000000 0.8527994188 0.6897591340 0.0000000000  Biso 1.0 Ge
Ge18 1.0000000000 0.1472005812 0.6897591340 0.0000000000  Biso 1.0 Ge
Ge19 1.0000000000 0.8527994188 0.3102408660 0.0000000000  Biso 1.0 Ge
Ge20 1.0000000000 0.1472005812 0.3102408660 0.0000000000  Biso 1.0 Ge
Ge21 1.0000000000 0.3527994188 0.5000000000 0.1897591340  Biso 1.0 Ge
Ge22 1.0000000000 0.6472005812 0.5000000000 0.1897591340  Biso 1.0 Ge
Ge23 1.0000000000 0.3527994188 0.5000000000 0.8102408660  Biso 1.0 Ge
Ge24 1.0000000000 0.6472005812 0.5000000000 0.8102408660  Biso 1.0 Ge
Ge25 1.0000000000 0.5000000000 0.1897591340 0.3527994188  Biso 1.0 Ge
Ge26 1.0000000000 0.5000000000 0.1897591340 0.6472005812  Biso 1.0 Ge
Ge27 1.0000000000 0.5000000000 0.8102408660 0.3527994188  Biso 1.0 Ge
Ge28 1.0000000000 0.5000000000 0.8102408660 0.6472005812  Biso 1.0 Ge
Ge29 1.0000000000 0.1897591340 0.3527994188 0.5000000000  Biso 1.0 Ge
Ge30 1.0000000000 0.1897591340 0.6472005812 0.5000000000  Biso 1.0 Ge
Ge31 1.0000000000 0.8102408660 0.3527994188 0.5000000000  Biso 1.0 Ge
Ge32 1.0000000000 0.8102408660 0.6472005812 0.5000000000  Biso 1.0 Ge
Rh33 1.0000000000 0.7500000000 0.7500000000 0.2500000000  Biso 1.0 Rh
Rh34 1.0000000000 0.2500000000 0.2500000000 0.2500000000  Biso 1.0 Rh
Rh35 1.0000000000 0.2500000000 0.7500000000 0.7500000000  Biso 1.0 Rh
Rh36 1.0000000000 0.7500000000 0.2500000000 0.7500000000  Biso 1.0 Rh
Rh37 1.0000000000 0.2500000000 0.2500000000 0.7500000000  Biso 1.0 Rh
Rh38 1.0000000000 0.7500000000 0.7500000000 0.7500000000  Biso 1.0 Rh
Rh39 1.0000000000 0.7500000000 0.2500000000 0.2500000000  Biso 1.0 Rh
Rh40 1.0000000000 0.2500000000 0.7500000000 0.2500000000  Biso 1.0 Rh
