# AFLOW.org Repositories
# Dy3Ge4   [ORCC,ORCC,oS28] (STD_PRIM doi:
data_Dy3Ge4
_pd_phase_name Dy3Ge4
_cell_length_a  5.7152010315
_cell_length_b  5.7152010315
_cell_length_c  14.2654934853
_cell_angle_alpha  90.0000000000
_cell_angle_beta  90.0000000000
_cell_angle_gamma  138.3186364300
_symmetry_space_group_name_H-M  'P1'
_symmetry_Int_Tables_Number  1
loop_
_symmetry_equiv_pos_site_id
_symmetry_equiv_pos_as_xyz
  1  x,y,z
loop_
 _atom_site_label
 _atom_site_occupancy
 _atom_site_fract_x
 _atom_site_fract_y
 _atom_site_fract_z
 _atom_site_thermal_displace_type
 _atom_site_B_iso_or_equiv
 _atom_site_type_symbol
Dy1 1.0000000000 0.3308779593 0.6691220407 0.0969667388  Biso 1.0 Dy
Dy2 1.0000000000 0.6691220407 0.3308779593 0.5969667388  Biso 1.0 Dy
Dy3 1.0000000000 0.3308779593 0.6691220407 0.4030332612  Biso 1.0 Dy
Dy4 1.0000000000 0.6691220407 0.3308779593 0.9030332612  Biso 1.0 Dy
Dy5 1.0000000000 0.0467252815 0.9532747185 0.2500000000  Biso 1.0 Dy
Dy6 1.0000000000 0.9532747185 0.0467252815 0.7500000000  Biso 1.0 Dy
Ge7 1.0000000000 0.3792483536 0.6207516464 0.8913359938  Biso 1.0 Ge
Ge8 1.0000000000 0.6207516464 0.3792483536 0.3913359938  Biso 1.0 Ge
Ge9 1.0000000000 0.3792483536 0.6207516464 0.6086640062  Biso 1.0 Ge
Ge10 1.0000000000 0.6207516464 0.3792483536 0.1086640062  Biso 1.0 Ge
Ge11 1.0000000000 0.7754145905 0.2245854095 0.2500000000  Biso 1.0 Ge
Ge12 1.0000000000 0.2245854095 0.7754145905 0.7500000000  Biso 1.0 Ge
Ge13 1.0000000000 0.0000000000 0.0000000000 0.0000000000  Biso 1.0 Ge
Ge14 1.0000000000 0.0000000000 0.0000000000 0.5000000000  Biso 1.0 Ge
