# AFLOW.org Repositories
# Dy3Ni2   [MCLC,MCLC1,mS20] (STD_PRIM doi
data_Dy3Ni2
_pd_phase_name Dy3Ni2
_cell_length_a  6.8638284836
_cell_length_b  6.8638284836
_cell_length_c  9.5193673337
_cell_angle_alpha  75.1724094318
_cell_angle_beta  75.1724094318
_cell_angle_gamma  30.7168366204
_symmetry_space_group_name_H-M  'P1'
_symmetry_Int_Tables_Number  1
loop_
_symmetry_equiv_pos_site_id
_symmetry_equiv_pos_as_xyz
  1  x,y,z
loop_
 _atom_site_label
 _atom_site_occupancy
 _atom_site_fract_x
 _atom_site_fract_y
 _atom_site_fract_z
 _atom_site_thermal_displace_type
 _atom_site_B_iso_or_equiv
 _atom_site_type_symbol
Dy1 1.0000000000 0.1310298886 0.1310298886 0.0015010399  Biso 1.0 Dy
Dy2 1.0000000000 0.8689701114 0.8689701114 0.9984989601  Biso 1.0 Dy
Dy3 1.0000000000 0.4031745832 0.4031745832 0.6722343209  Biso 1.0 Dy
Dy4 1.0000000000 0.5968254168 0.5968254168 0.3277656791  Biso 1.0 Dy
Dy5 1.0000000000 0.1449603561 0.1449603561 0.6322165479  Biso 1.0 Dy
Dy6 1.0000000000 0.8550396439 0.8550396439 0.3677834521  Biso 1.0 Dy
Ni7 1.0000000000 0.5335806332 0.5335806332 0.8552536378  Biso 1.0 Ni
Ni8 1.0000000000 0.4664193668 0.4664193668 0.1447463622  Biso 1.0 Ni
Ni9 1.0000000000 0.7446933227 0.7446933227 0.7749289009  Biso 1.0 Ni
Ni10 1.0000000000 0.2553066773 0.2553066773 0.2250710991  Biso 1.0 Ni
