# AFLOW.org Repositories
# Dy3Os1   [ORC,ORC,oP16] (STD_PRIM doi:10
data_Dy3Os1
_pd_phase_name Dy3Os1
_cell_length_a  6.3255870116
_cell_length_b  7.3803929914
_cell_length_c  9.0730752754
_cell_angle_alpha  90.0000000000
_cell_angle_beta  90.0000000000
_cell_angle_gamma  90.0000000000
_symmetry_space_group_name_H-M  'P1'
_symmetry_Int_Tables_Number  1
loop_
_symmetry_equiv_pos_site_id
_symmetry_equiv_pos_as_xyz
  1  x,y,z
loop_
 _atom_site_label
 _atom_site_occupancy
 _atom_site_fract_x
 _atom_site_fract_y
 _atom_site_fract_z
 _atom_site_thermal_displace_type
 _atom_site_B_iso_or_equiv
 _atom_site_type_symbol
Dy1 1.0000000000 0.8326257301 0.1746872204 0.9361711880  Biso 1.0 Dy
Dy2 1.0000000000 0.3326257301 0.3253127796 0.0638288120  Biso 1.0 Dy
Dy3 1.0000000000 0.1673742699 0.8253127796 0.4361711880  Biso 1.0 Dy
Dy4 1.0000000000 0.6673742699 0.6746872204 0.5638288120  Biso 1.0 Dy
Dy5 1.0000000000 0.1673742699 0.8253127796 0.0638288120  Biso 1.0 Dy
Dy6 1.0000000000 0.6673742699 0.6746872204 0.9361711880  Biso 1.0 Dy
Dy7 1.0000000000 0.8326257301 0.1746872204 0.5638288120  Biso 1.0 Dy
Dy8 1.0000000000 0.3326257301 0.3253127796 0.4361711880  Biso 1.0 Dy
Dy9 1.0000000000 0.3672387215 0.0396455287 0.7500000000  Biso 1.0 Dy
Dy10 1.0000000000 0.8672387215 0.4603544713 0.2500000000  Biso 1.0 Dy
Dy11 1.0000000000 0.6327612785 0.9603544713 0.2500000000  Biso 1.0 Dy
Dy12 1.0000000000 0.1327612785 0.5396455287 0.7500000000  Biso 1.0 Dy
Os13 1.0000000000 0.5395387508 0.3819315831 0.7500000000  Biso 1.0 Os
Os14 1.0000000000 0.0395387508 0.1180684169 0.2500000000  Biso 1.0 Os
Os15 1.0000000000 0.4604612492 0.6180684169 0.2500000000  Biso 1.0 Os
Os16 1.0000000000 0.9604612492 0.8819315831 0.7500000000  Biso 1.0 Os
