# AFLOW.org Repositories
# Dy4Ge6Rh7   [BCC,BCC,cI34] (STD_PRIM doi
data_Dy4Ge6Rh7
_pd_phase_name Dy4Ge6Rh7
_cell_length_a  7.2610736768
_cell_length_b  7.2610736768
_cell_length_c  7.2610736768
_cell_angle_alpha  109.4712206345
_cell_angle_beta  109.4712206345
_cell_angle_gamma  109.4712206345
_symmetry_space_group_name_H-M  'P1'
_symmetry_Int_Tables_Number  1
loop_
_symmetry_equiv_pos_site_id
_symmetry_equiv_pos_as_xyz
  1  x,y,z
loop_
 _atom_site_label
 _atom_site_occupancy
 _atom_site_fract_x
 _atom_site_fract_y
 _atom_site_fract_z
 _atom_site_thermal_displace_type
 _atom_site_B_iso_or_equiv
 _atom_site_type_symbol
Dy1 1.0000000000 0.5000000000 0.0000000000 0.0000000000  Biso 1.0 Dy
Dy2 1.0000000000 0.5000000000 0.5000000000 0.5000000000  Biso 1.0 Dy
Dy3 1.0000000000 0.0000000000 0.0000000000 0.5000000000  Biso 1.0 Dy
Dy4 1.0000000000 0.0000000000 0.5000000000 0.0000000000  Biso 1.0 Dy
Ge5 1.0000000000 0.3213690579 0.3213690579 0.0000000000  Biso 1.0 Ge
Ge6 1.0000000000 0.6786309421 0.6786309421 0.0000000000  Biso 1.0 Ge
Ge7 1.0000000000 0.3213690579 0.0000000000 0.3213690579  Biso 1.0 Ge
Ge8 1.0000000000 0.6786309421 0.0000000000 0.6786309421  Biso 1.0 Ge
Ge9 1.0000000000 0.0000000000 0.6786309421 0.6786309421  Biso 1.0 Ge
Ge10 1.0000000000 0.0000000000 0.3213690579 0.3213690579  Biso 1.0 Ge
Rh11 1.0000000000 0.2500000000 0.7500000000 0.5000000000  Biso 1.0 Rh
Rh12 1.0000000000 0.7500000000 0.2500000000 0.5000000000  Biso 1.0 Rh
Rh13 1.0000000000 0.7500000000 0.5000000000 0.2500000000  Biso 1.0 Rh
Rh14 1.0000000000 0.2500000000 0.5000000000 0.7500000000  Biso 1.0 Rh
Rh15 1.0000000000 0.5000000000 0.7500000000 0.2500000000  Biso 1.0 Rh
Rh16 1.0000000000 0.5000000000 0.2500000000 0.7500000000  Biso 1.0 Rh
Rh17 1.0000000000 0.0000000000 0.0000000000 0.0000000000  Biso 1.0 Rh
