# AFLOW.org Repositories
# Dy4In1Rh1   [FCC,FCC,cF96] (STD_PRIM doi
data_Dy4In1Rh1
_pd_phase_name Dy4In1Rh1
_cell_length_a  9.6289768810
_cell_length_b  9.6289768810
_cell_length_c  9.6289768810
_cell_angle_alpha  60.0000000000
_cell_angle_beta  60.0000000000
_cell_angle_gamma  60.0000000000
_symmetry_space_group_name_H-M  'P1'
_symmetry_Int_Tables_Number  1
loop_
_symmetry_equiv_pos_site_id
_symmetry_equiv_pos_as_xyz
  1  x,y,z
loop_
 _atom_site_label
 _atom_site_occupancy
 _atom_site_fract_x
 _atom_site_fract_y
 _atom_site_fract_z
 _atom_site_thermal_displace_type
 _atom_site_B_iso_or_equiv
 _atom_site_type_symbol
Dy1 1.0000000000 0.5628006560 0.9371993440 0.9371993440  Biso 1.0 Dy
Dy2 1.0000000000 0.9371993440 0.5628006560 0.5628006560  Biso 1.0 Dy
Dy3 1.0000000000 0.5628006560 0.9371993440 0.5628006560  Biso 1.0 Dy
Dy4 1.0000000000 0.9371993440 0.5628006560 0.9371993440  Biso 1.0 Dy
Dy5 1.0000000000 0.9371993440 0.9371993440 0.5628006560  Biso 1.0 Dy
Dy6 1.0000000000 0.5628006560 0.5628006560 0.9371993440  Biso 1.0 Dy
Dy7 1.0000000000 0.1889806282 0.8110193718 0.8110193718  Biso 1.0 Dy
Dy8 1.0000000000 0.8110193718 0.1889806282 0.1889806282  Biso 1.0 Dy
Dy9 1.0000000000 0.1889806282 0.8110193718 0.1889806282  Biso 1.0 Dy
Dy10 1.0000000000 0.8110193718 0.1889806282 0.8110193718  Biso 1.0 Dy
Dy11 1.0000000000 0.8110193718 0.8110193718 0.1889806282  Biso 1.0 Dy
Dy12 1.0000000000 0.1889806282 0.1889806282 0.8110193718  Biso 1.0 Dy
Dy13 1.0000000000 0.3491319323 0.9526042030 0.3491319323  Biso 1.0 Dy
Dy14 1.0000000000 0.9526042030 0.3491319323 0.3491319323  Biso 1.0 Dy
Dy15 1.0000000000 0.3491319323 0.3491319323 0.3491319323  Biso 1.0 Dy
Dy16 1.0000000000 0.3491319323 0.3491319323 0.9526042030  Biso 1.0 Dy
In17 1.0000000000 0.5824735901 0.2525792297 0.5824735901  Biso 1.0 In
In18 1.0000000000 0.2525792297 0.5824735901 0.5824735901  Biso 1.0 In
In19 1.0000000000 0.5824735901 0.5824735901 0.5824735901  Biso 1.0 In
In20 1.0000000000 0.5824735901 0.5824735901 0.2525792297  Biso 1.0 In
Rh21 1.0000000000 0.1423661011 0.5729016967 0.1423661011  Biso 1.0 Rh
Rh22 1.0000000000 0.5729016967 0.1423661011 0.1423661011  Biso 1.0 Rh
Rh23 1.0000000000 0.1423661011 0.1423661011 0.1423661011  Biso 1.0 Rh
Rh24 1.0000000000 0.1423661011 0.1423661011 0.5729016967  Biso 1.0 Rh
