# AFLOW.org Repositories
# Dy4Mg1Rh1   [FCC,FCC,cF96] (STD_PRIM doi
data_Dy4Mg1Rh1
_pd_phase_name Dy4Mg1Rh1
_cell_length_a  9.6674601224
_cell_length_b  9.6674601224
_cell_length_c  9.6674601224
_cell_angle_alpha  60.0000000000
_cell_angle_beta  60.0000000000
_cell_angle_gamma  60.0000000000
_symmetry_space_group_name_H-M  'P1'
_symmetry_Int_Tables_Number  1
loop_
_symmetry_equiv_pos_site_id
_symmetry_equiv_pos_as_xyz
  1  x,y,z
loop_
 _atom_site_label
 _atom_site_occupancy
 _atom_site_fract_x
 _atom_site_fract_y
 _atom_site_fract_z
 _atom_site_thermal_displace_type
 _atom_site_B_iso_or_equiv
 _atom_site_type_symbol
Dy1 1.0000000000 0.0653098268 0.0653098295 0.4346901785  Biso 1.0 Dy
Dy2 1.0000000000 0.4346901758 0.4346901755 0.0653098236  Biso 1.0 Dy
Dy3 1.0000000000 0.4346901758 0.0653098232 0.4346901759  Biso 1.0 Dy
Dy4 1.0000000000 0.0653098268 0.4346901818 0.0653098262  Biso 1.0 Dy
Dy5 1.0000000000 0.4346901791 0.0653098295 0.0653098262  Biso 1.0 Dy
Dy6 1.0000000000 0.0653098287 0.4346901856 0.4346901800  Biso 1.0 Dy
Dy7 1.0000000000 0.1875594178 0.1875594187 0.8124405839  Biso 1.0 Dy
Dy8 1.0000000000 0.8124405874 0.8124405914 0.1875594202  Biso 1.0 Dy
Dy9 1.0000000000 0.8124405822 0.1875594149 0.8124405824  Biso 1.0 Dy
Dy10 1.0000000000 0.1875594126 0.8124405750 0.1875594135  Biso 1.0 Dy
Dy11 1.0000000000 0.8124405841 0.1875594187 0.1875594176  Biso 1.0 Dy
Dy12 1.0000000000 0.1875594211 0.8124405914 0.8124405865  Biso 1.0 Dy
Dy13 1.0000000000 0.6533806117 0.0398581738 0.6533806113  Biso 1.0 Dy
Dy14 1.0000000000 0.6533806117 0.6533806134 0.0398581718  Biso 1.0 Dy
Dy15 1.0000000000 0.6533806149 0.6533806196 0.6533806138  Biso 1.0 Dy
Dy16 1.0000000000 0.0398581721 0.6533806134 0.6533806113  Biso 1.0 Dy
Mg17 1.0000000000 0.4202708678 0.7391874114 0.4202708672  Biso 1.0 Mg
Mg18 1.0000000000 0.4202708678 0.4202708707 0.7391874080  Biso 1.0 Mg
Mg19 1.0000000000 0.4202708662 0.4202708674 0.4202708659  Biso 1.0 Mg
Mg20 1.0000000000 0.7391874086 0.4202708707 0.4202708672  Biso 1.0 Mg
Rh21 1.0000000000 0.8580811341 0.4257566014 0.8580811339  Biso 1.0 Rh
Rh22 1.0000000000 0.8580811341 0.8580811348 0.4257566006  Biso 1.0 Rh
Rh23 1.0000000000 0.8580811415 0.8580811492 0.8580811398  Biso 1.0 Rh
Rh24 1.0000000000 0.4257566008 0.8580811348 0.8580811339  Biso 1.0 Rh
