# AFLOW.org Repositories
# Dy5Ni1Pb3   [HEX,HEX,hP18] (STD_PRIM doi
data_Dy5Ni1Pb3
_pd_phase_name Dy5Ni1Pb3
_cell_length_a  9.1735227957
_cell_length_b  9.1735227957
_cell_length_c  6.7187894140
_cell_angle_alpha  90.0000000000
_cell_angle_beta  90.0000000000
_cell_angle_gamma  120.0000000000
_symmetry_space_group_name_H-M  'P1'
_symmetry_Int_Tables_Number  1
loop_
_symmetry_equiv_pos_site_id
_symmetry_equiv_pos_as_xyz
  1  x,y,z
loop_
 _atom_site_label
 _atom_site_occupancy
 _atom_site_fract_x
 _atom_site_fract_y
 _atom_site_fract_z
 _atom_site_thermal_displace_type
 _atom_site_B_iso_or_equiv
 _atom_site_type_symbol
Dy1 1.0000000000 0.2379352066 0.0000000000 0.2500000000  Biso 1.0 Dy
Dy2 1.0000000000 0.0000000000 0.2379352066 0.2500000000  Biso 1.0 Dy
Dy3 1.0000000000 0.7620595775 0.7620595775 0.2500000000  Biso 1.0 Dy
Dy4 1.0000000000 0.7620647934 0.0000000000 0.7500000000  Biso 1.0 Dy
Dy5 1.0000000000 0.0000000000 0.7620647934 0.7500000000  Biso 1.0 Dy
Dy6 1.0000000000 0.2379404225 0.2379404225 0.7500000000  Biso 1.0 Dy
Dy7 1.0000000000 0.3333236601 0.6666763399 0.0000000000  Biso 1.0 Dy
Dy8 1.0000000000 0.6666763399 0.3333236601 0.5000000000  Biso 1.0 Dy
Dy9 1.0000000000 0.6666763399 0.3333236601 0.0000000000  Biso 1.0 Dy
Dy10 1.0000000000 0.3333236601 0.6666763399 0.5000000000  Biso 1.0 Dy
Ni11 1.0000000000 0.0000000000 0.0000000000 0.0000000000  Biso 1.0 Ni
Ni12 1.0000000000 0.0000000000 0.0000000000 0.5000000000  Biso 1.0 Ni
Pb13 1.0000000000 0.6002982085 0.0000000000 0.2500000000  Biso 1.0 Pb
Pb14 1.0000000000 0.0000000000 0.6002982085 0.2500000000  Biso 1.0 Pb
Pb15 1.0000000000 0.3997117385 0.3997117385 0.2500000000  Biso 1.0 Pb
Pb16 1.0000000000 0.3997017915 0.0000000000 0.7500000000  Biso 1.0 Pb
Pb17 1.0000000000 0.0000000000 0.3997017915 0.7500000000  Biso 1.0 Pb
Pb18 1.0000000000 0.6002882615 0.6002882615 0.7500000000  Biso 1.0 Pb
