# AFLOW.org Repositories
# Dy5S7   [MCLC,MCLC1,mS24] (STD_PRIM doi:
data_Dy5S7
_pd_phase_name Dy5S7
_cell_length_a  6.7022136503
_cell_length_b  6.7022136503
_cell_length_c  11.6096802871
_cell_angle_alpha  76.0566314980
_cell_angle_beta  76.0566314980
_cell_angle_gamma  32.9963784876
_symmetry_space_group_name_H-M  'P1'
_symmetry_Int_Tables_Number  1
loop_
_symmetry_equiv_pos_site_id
_symmetry_equiv_pos_as_xyz
  1  x,y,z
loop_
 _atom_site_label
 _atom_site_occupancy
 _atom_site_fract_x
 _atom_site_fract_y
 _atom_site_fract_z
 _atom_site_thermal_displace_type
 _atom_site_B_iso_or_equiv
 _atom_site_type_symbol
Dy1 1.0000000000 0.0000000000 0.0000000000 0.0000000000  Biso 1.0 Dy
Dy2 1.0000000000 0.1119378071 0.1119378071 0.5787856833  Biso 1.0 Dy
Dy3 1.0000000000 0.8880621929 0.8880621929 0.4212143167  Biso 1.0 Dy
Dy4 1.0000000000 0.3002354453 0.3002354453 0.8126311213  Biso 1.0 Dy
Dy5 1.0000000000 0.6997645547 0.6997645547 0.1873688787  Biso 1.0 Dy
S6 1.0000000000 0.5000000000 0.5000000000 0.5000000000  Biso 1.0 S
S7 1.0000000000 0.6591727008 0.6591727008 0.9490242886  Biso 1.0 S
S8 1.0000000000 0.3408272992 0.3408272992 0.0509757114  Biso 1.0 S
S9 1.0000000000 0.9584536746 0.9584536746 0.7849960221  Biso 1.0 S
S10 1.0000000000 0.0415463254 0.0415463254 0.2150039779  Biso 1.0 S
S11 1.0000000000 0.2591240357 0.2591240357 0.3521758562  Biso 1.0 S
S12 1.0000000000 0.7408759643 0.7408759643 0.6478241438  Biso 1.0 S
