# AFLOW.org Repositories
# Er1Ge1Ir1   [ORC,ORC,oP12] (STD_PRIM doi
data_Er1Ge1Ir1
_pd_phase_name Er1Ge1Ir1
_cell_length_a  4.3653389256
_cell_length_b  6.8396651636
_cell_length_c  7.4546897759
_cell_angle_alpha  90.0000000000
_cell_angle_beta  90.0000000000
_cell_angle_gamma  90.0000000000
_symmetry_space_group_name_H-M  'P1'
_symmetry_Int_Tables_Number  1
loop_
_symmetry_equiv_pos_site_id
_symmetry_equiv_pos_as_xyz
  1  x,y,z
loop_
 _atom_site_label
 _atom_site_occupancy
 _atom_site_fract_x
 _atom_site_fract_y
 _atom_site_fract_z
 _atom_site_thermal_displace_type
 _atom_site_B_iso_or_equiv
 _atom_site_type_symbol
Er1 1.0000000000 0.2500000000 0.0130290869 0.7995828006  Biso 1.0 Er
Er2 1.0000000000 0.7500000000 0.4869709131 0.2995828006  Biso 1.0 Er
Er3 1.0000000000 0.7500000000 0.9869709131 0.2004171994  Biso 1.0 Er
Er4 1.0000000000 0.2500000000 0.5130290869 0.7004171994  Biso 1.0 Er
Ge5 1.0000000000 0.2500000000 0.1821299393 0.4174461464  Biso 1.0 Ge
Ge6 1.0000000000 0.7500000000 0.3178700607 0.9174461464  Biso 1.0 Ge
Ge7 1.0000000000 0.7500000000 0.8178700607 0.5825538536  Biso 1.0 Ge
Ge8 1.0000000000 0.2500000000 0.6821299393 0.0825538536  Biso 1.0 Ge
Ir9 1.0000000000 0.2500000000 0.7925249424 0.4088206105  Biso 1.0 Ir
Ir10 1.0000000000 0.7500000000 0.7074750576 0.9088206105  Biso 1.0 Ir
Ir11 1.0000000000 0.7500000000 0.2074750576 0.5911793895  Biso 1.0 Ir
Ir12 1.0000000000 0.2500000000 0.2925249424 0.0911793895  Biso 1.0 Ir
