# AFLOW.org Repositories
# Er1Ge1Sn1   [ORCC,ORCC,oS12] (STD_PRIM d
data_Er1Ge1Sn1
_pd_phase_name Er1Ge1Sn1
_cell_length_a  8.3511866793
_cell_length_b  8.3511866793
_cell_length_c  4.0997999991
_cell_angle_alpha  90.0000000000
_cell_angle_beta  90.0000000000
_cell_angle_gamma  150.2620771892
_symmetry_space_group_name_H-M  'P1'
_symmetry_Int_Tables_Number  1
loop_
_symmetry_equiv_pos_site_id
_symmetry_equiv_pos_as_xyz
  1  x,y,z
loop_
 _atom_site_label
 _atom_site_occupancy
 _atom_site_fract_x
 _atom_site_fract_y
 _atom_site_fract_z
 _atom_site_thermal_displace_type
 _atom_site_B_iso_or_equiv
 _atom_site_type_symbol
Er1 1.0000000000 0.0929255841 0.9070744159 0.7500000000  Biso 1.0 Er
Er2 1.0000000000 0.9070744159 0.0929255841 0.2500000000  Biso 1.0 Er
Ge3 1.0000000000 0.4447964003 0.5552035997 0.7500000000  Biso 1.0 Ge
Ge4 1.0000000000 0.5552035997 0.4447964003 0.2500000000  Biso 1.0 Ge
Sn5 1.0000000000 0.7473081287 0.2526918713 0.7500000000  Biso 1.0 Sn
Sn6 1.0000000000 0.2526918713 0.7473081287 0.2500000000  Biso 1.0 Sn
