# AFLOW.org Repositories
# Er1Ge3Ni1   [ORCC,ORCC,oS20] (STD_PRIM d
data_Er1Ge3Ni1
_pd_phase_name Er1Ge3Ni1
_cell_length_a  10.9952879018
_cell_length_b  10.9952879018
_cell_length_c  4.0494071629
_cell_angle_alpha  90.0000000000
_cell_angle_beta  90.0000000000
_cell_angle_gamma  158.6320789502
_symmetry_space_group_name_H-M  'P1'
_symmetry_Int_Tables_Number  1
loop_
_symmetry_equiv_pos_site_id
_symmetry_equiv_pos_as_xyz
  1  x,y,z
loop_
 _atom_site_label
 _atom_site_occupancy
 _atom_site_fract_x
 _atom_site_fract_y
 _atom_site_fract_z
 _atom_site_thermal_displace_type
 _atom_site_B_iso_or_equiv
 _atom_site_type_symbol
Er1 1.0000000000 0.1689058322 0.8310941678 0.5000000000  Biso 1.0 Er
Er2 1.0000000000 0.8310941678 0.1689058322 0.5000000000  Biso 1.0 Er
Ge3 1.0000000000 0.2835063653 0.7164936347 0.0000000000  Biso 1.0 Ge
Ge4 1.0000000000 0.7164936347 0.2835063653 0.0000000000  Biso 1.0 Ge
Ge5 1.0000000000 0.4425261043 0.5574738957 0.5000000000  Biso 1.0 Ge
Ge6 1.0000000000 0.5574738957 0.4425261043 0.5000000000  Biso 1.0 Ge
Ge7 1.0000000000 0.0577556430 0.9422443570 0.0000000000  Biso 1.0 Ge
Ge8 1.0000000000 0.9422443570 0.0577556430 0.0000000000  Biso 1.0 Ge
Ni9 1.0000000000 0.3889559624 0.6110440376 0.0000000000  Biso 1.0 Ni
Ni10 1.0000000000 0.6110440376 0.3889559624 0.0000000000  Biso 1.0 Ni
