# AFLOW.org Repositories
# Er1Ge1Ru1   [ORC,ORC,oP12] (STD_PRIM doi
data_Er1Ge1Ru1
_pd_phase_name Er1Ge1Ru1
_cell_length_a  4.4078154196
_cell_length_b  6.9978124116
_cell_length_c  7.1936064123
_cell_angle_alpha  90.0000000000
_cell_angle_beta  90.0000000000
_cell_angle_gamma  90.0000000000
_symmetry_space_group_name_H-M  'P1'
_symmetry_Int_Tables_Number  1
loop_
_symmetry_equiv_pos_site_id
_symmetry_equiv_pos_as_xyz
  1  x,y,z
loop_
 _atom_site_label
 _atom_site_occupancy
 _atom_site_fract_x
 _atom_site_fract_y
 _atom_site_fract_z
 _atom_site_thermal_displace_type
 _atom_site_B_iso_or_equiv
 _atom_site_type_symbol
Er1 1.0000000000 0.2500000000 0.9862690510 0.8065931084  Biso 1.0 Er
Er2 1.0000000000 0.7500000000 0.5137309490 0.3065931084  Biso 1.0 Er
Er3 1.0000000000 0.7500000000 0.0137309490 0.1934068916  Biso 1.0 Er
Er4 1.0000000000 0.2500000000 0.4862690510 0.6934068916  Biso 1.0 Er
Ge5 1.0000000000 0.2500000000 0.7943570676 0.3940138254  Biso 1.0 Ge
Ge6 1.0000000000 0.7500000000 0.7056429324 0.8940138254  Biso 1.0 Ge
Ge7 1.0000000000 0.7500000000 0.2056429324 0.6059861746  Biso 1.0 Ge
Ge8 1.0000000000 0.2500000000 0.2943570676 0.1059861746  Biso 1.0 Ge
Ru9 1.0000000000 0.2500000000 0.1536572210 0.4372518512  Biso 1.0 Ru
Ru10 1.0000000000 0.7500000000 0.3463427790 0.9372518512  Biso 1.0 Ru
Ru11 1.0000000000 0.7500000000 0.8463427790 0.5627481488  Biso 1.0 Ru
Ru12 1.0000000000 0.2500000000 0.6536572210 0.0627481488  Biso 1.0 Ru
