# AFLOW.org Repositories
# Er1Hg3   [HEX,HEX,hP8] (STD_PRIM doi:10.
data_Er1Hg3
_pd_phase_name Er1Hg3
_cell_length_a  6.6230212850
_cell_length_b  6.6230212850
_cell_length_c  4.9819610584
_cell_angle_alpha  90.0000000000
_cell_angle_beta  90.0000000000
_cell_angle_gamma  120.0000000000
_symmetry_space_group_name_H-M  'P1'
_symmetry_Int_Tables_Number  1
loop_
_symmetry_equiv_pos_site_id
_symmetry_equiv_pos_as_xyz
  1  x,y,z
loop_
 _atom_site_label
 _atom_site_occupancy
 _atom_site_fract_x
 _atom_site_fract_y
 _atom_site_fract_z
 _atom_site_thermal_displace_type
 _atom_site_B_iso_or_equiv
 _atom_site_type_symbol
Er1 1.0000000000 0.6666900483 0.3333800965 0.2500000000  Biso 1.0 Er
Er2 1.0000000000 0.3333099517 0.6666199035 0.7500000000  Biso 1.0 Er
Hg3 1.0000000000 0.6660873839 0.8330519389 0.2500000000  Biso 1.0 Hg
Hg4 1.0000000000 0.1669645550 0.8330519389 0.2500000000  Biso 1.0 Hg
Hg5 1.0000000000 0.1669505338 0.3339010677 0.2500000000  Biso 1.0 Hg
Hg6 1.0000000000 0.3339126161 0.1669480611 0.7500000000  Biso 1.0 Hg
Hg7 1.0000000000 0.8330354450 0.1669480611 0.7500000000  Biso 1.0 Hg
Hg8 1.0000000000 0.8330494662 0.6660989323 0.7500000000  Biso 1.0 Hg
