# AFLOW.org Repositories
# Er1Mg2   [HEX,HEX,hP12] (STD_PRIM doi:10
data_Er1Mg2
_pd_phase_name Er1Mg2
_cell_length_a  6.0125704977
_cell_length_b  6.0125704977
_cell_length_c  9.7666578878
_cell_angle_alpha  90.0000000000
_cell_angle_beta  90.0000000000
_cell_angle_gamma  120.0000000000
_symmetry_space_group_name_H-M  'P1'
_symmetry_Int_Tables_Number  1
loop_
_symmetry_equiv_pos_site_id
_symmetry_equiv_pos_as_xyz
  1  x,y,z
loop_
 _atom_site_label
 _atom_site_occupancy
 _atom_site_fract_x
 _atom_site_fract_y
 _atom_site_fract_z
 _atom_site_thermal_displace_type
 _atom_site_B_iso_or_equiv
 _atom_site_type_symbol
Er1 1.0000000000 0.3333804422 0.6666902211 0.0625402747  Biso 1.0 Er
Er2 1.0000000000 0.6666195578 0.3333097789 0.5625402747  Biso 1.0 Er
Er3 1.0000000000 0.6666195578 0.3333097789 0.9374597253  Biso 1.0 Er
Er4 1.0000000000 0.3333804422 0.6666902211 0.4374597253  Biso 1.0 Er
Mg5 1.0000000000 0.0000000000 0.0000000000 0.0000000000  Biso 1.0 Mg
Mg6 1.0000000000 0.0000000000 0.0000000000 0.5000000000  Biso 1.0 Mg
Mg7 1.0000000000 0.8293990473 0.1706165635 0.2500000000  Biso 1.0 Mg
Mg8 1.0000000000 0.8293990473 0.6587824838 0.2500000000  Biso 1.0 Mg
Mg9 1.0000000000 0.3412141870 0.1706070935 0.2500000000  Biso 1.0 Mg
Mg10 1.0000000000 0.1706009527 0.8293834365 0.7500000000  Biso 1.0 Mg
Mg11 1.0000000000 0.1706009527 0.3412175162 0.7500000000  Biso 1.0 Mg
Mg12 1.0000000000 0.6587858130 0.8293929065 0.7500000000  Biso 1.0 Mg
