# AFLOW.org Repositories
# Er1Ni2Si2   [BCT,BCT2,tI10] (STD_PRIM do
data_Er1Ni2Si2
_pd_phase_name Er1Ni2Si2
_cell_length_a  5.4543594839
_cell_length_b  5.4543594839
_cell_length_c  5.4543594839
_cell_angle_alpha  137.5147375531
_cell_angle_beta  137.5147375531
_cell_angle_gamma  61.6470192291
_symmetry_space_group_name_H-M  'P1'
_symmetry_Int_Tables_Number  1
loop_
_symmetry_equiv_pos_site_id
_symmetry_equiv_pos_as_xyz
  1  x,y,z
loop_
 _atom_site_label
 _atom_site_occupancy
 _atom_site_fract_x
 _atom_site_fract_y
 _atom_site_fract_z
 _atom_site_thermal_displace_type
 _atom_site_B_iso_or_equiv
 _atom_site_type_symbol
Er1 1.0000000000 0.0000000000 0.0000000000 0.0000000000  Biso 1.0 Er
Ni2 1.0000000000 0.2500000000 0.7500000000 0.5000000000  Biso 1.0 Ni
Ni3 1.0000000000 0.7500000000 0.2500000000 0.5000000000  Biso 1.0 Ni
Si4 1.0000000000 0.6277546576 0.6277546576 0.0000000000  Biso 1.0 Si
Si5 1.0000000000 0.3722453424 0.3722453424 0.0000000000  Biso 1.0 Si
