# AFLOW.org Repositories
# Er1O4P1   [BCT,BCT1,tI24] (STD_PRIM doi:
data_Er1O4P1
_pd_phase_name Er1O4P1
_cell_length_a  5.7343270057
_cell_length_b  5.7343270057
_cell_length_c  5.7343270057
_cell_angle_alpha  105.9558294467
_cell_angle_beta  105.9558294467
_cell_angle_gamma  116.7570020011
_symmetry_space_group_name_H-M  'P1'
_symmetry_Int_Tables_Number  1
loop_
_symmetry_equiv_pos_site_id
_symmetry_equiv_pos_as_xyz
  1  x,y,z
loop_
 _atom_site_label
 _atom_site_occupancy
 _atom_site_fract_x
 _atom_site_fract_y
 _atom_site_fract_z
 _atom_site_thermal_displace_type
 _atom_site_B_iso_or_equiv
 _atom_site_type_symbol
Er1 1.0000000000 0.0000000000 0.0000000000 0.0000000000  Biso 1.0 Er
Er2 1.0000000000 0.2500000000 0.7500000000 0.5000000000  Biso 1.0 Er
O3 1.0000000000 0.3383659658 0.5137185816 0.1753526158  Biso 1.0 O
O4 1.0000000000 0.3383659658 0.1630133500 0.8246473842  Biso 1.0 O
O5 1.0000000000 0.7637185816 0.0883659658 0.6753526158  Biso 1.0 O
O6 1.0000000000 0.4130133500 0.0883659658 0.3246473842  Biso 1.0 O
O7 1.0000000000 0.9116340342 0.5869866500 0.6753526158  Biso 1.0 O
O8 1.0000000000 0.9116340342 0.2362814184 0.3246473842  Biso 1.0 O
O9 1.0000000000 0.4862814184 0.6616340342 0.8246473842  Biso 1.0 O
O10 1.0000000000 0.8369866500 0.6616340342 0.1753526158  Biso 1.0 O
P11 1.0000000000 0.5000000000 0.5000000000 0.0000000000  Biso 1.0 P
P12 1.0000000000 0.7500000000 0.2500000000 0.5000000000  Biso 1.0 P
