# AFLOW.org Repositories
# Er1Pt1Zn1   [ORC,ORC,oP12] (STD_PRIM doi
data_Er1Pt1Zn1
_pd_phase_name Er1Pt1Zn1
_cell_length_a  4.0785542865
_cell_length_b  6.8860997648
_cell_length_c  8.1121386973
_cell_angle_alpha  90.0000000000
_cell_angle_beta  90.0000000000
_cell_angle_gamma  90.0000000000
_symmetry_space_group_name_H-M  'P1'
_symmetry_Int_Tables_Number  1
loop_
_symmetry_equiv_pos_site_id
_symmetry_equiv_pos_as_xyz
  1  x,y,z
loop_
 _atom_site_label
 _atom_site_occupancy
 _atom_site_fract_x
 _atom_site_fract_y
 _atom_site_fract_z
 _atom_site_thermal_displace_type
 _atom_site_B_iso_or_equiv
 _atom_site_type_symbol
Er1 1.0000000000 0.2500000000 0.0429110708 0.3155110900  Biso 1.0 Er
Er2 1.0000000000 0.7500000000 0.4570889292 0.8155110900  Biso 1.0 Er
Er3 1.0000000000 0.7500000000 0.9570889292 0.6844889100  Biso 1.0 Er
Er4 1.0000000000 0.2500000000 0.5429110708 0.1844889100  Biso 1.0 Er
Pt5 1.0000000000 0.2500000000 0.2520860135 0.6216818513  Biso 1.0 Pt
Pt6 1.0000000000 0.7500000000 0.2479139865 0.1216818513  Biso 1.0 Pt
Pt7 1.0000000000 0.7500000000 0.7479139865 0.3783181487  Biso 1.0 Pt
Pt8 1.0000000000 0.2500000000 0.7520860135 0.8783181487  Biso 1.0 Pt
Zn9 1.0000000000 0.2500000000 0.6358817290 0.5627046649  Biso 1.0 Zn
Zn10 1.0000000000 0.7500000000 0.8641182710 0.0627046649  Biso 1.0 Zn
Zn11 1.0000000000 0.7500000000 0.3641182710 0.4372953351  Biso 1.0 Zn
Zn12 1.0000000000 0.2500000000 0.1358817290 0.9372953351  Biso 1.0 Zn
