# AFLOW.org Repositories
# Er2Ni12P7   [HEX,HEX,hP21] (STD_PRIM doi
data_Er2Ni12P7
_pd_phase_name Er2Ni12P7
_cell_length_a  8.9529406274
_cell_length_b  8.9529406274
_cell_length_c  3.6414826206
_cell_angle_alpha  90.0000000000
_cell_angle_beta  90.0000000000
_cell_angle_gamma  120.0000000000
_symmetry_space_group_name_H-M  'P1'
_symmetry_Int_Tables_Number  1
loop_
_symmetry_equiv_pos_site_id
_symmetry_equiv_pos_as_xyz
  1  x,y,z
loop_
 _atom_site_label
 _atom_site_occupancy
 _atom_site_fract_x
 _atom_site_fract_y
 _atom_site_fract_z
 _atom_site_thermal_displace_type
 _atom_site_B_iso_or_equiv
 _atom_site_type_symbol
Er1 1.0000000000 0.3333230886 0.6666681988 0.0000000000  Biso 1.0 Er
Er2 1.0000000000 0.6666673193 0.3333679858 0.5000000000  Biso 1.0 Er
Ni3 1.0000000000 0.4337786327 0.0605284005 0.0000000000  Biso 1.0 Ni
Ni4 1.0000000000 0.9394581515 0.3732387847 0.0000000000  Biso 1.0 Ni
Ni5 1.0000000000 0.6267545178 0.5662372634 0.0000000000  Biso 1.0 Ni
Ni6 1.0000000000 0.1514657126 0.2744249122 0.0000000000  Biso 1.0 Ni
Ni7 1.0000000000 0.7255724349 0.8770218703 0.0000000000  Biso 1.0 Ni
Ni8 1.0000000000 0.1229554531 0.8485487158 0.0000000000  Biso 1.0 Ni
Ni9 1.0000000000 0.3813430835 0.4312627019 0.5000000000  Biso 1.0 Ni
Ni10 1.0000000000 0.5687266151 0.9500703603 0.5000000000  Biso 1.0 Ni
Ni11 1.0000000000 0.0499238659 0.6186531722 0.5000000000  Biso 1.0 Ni
Ni12 1.0000000000 0.2171421825 0.0958916578 0.5000000000  Biso 1.0 Ni
Ni13 1.0000000000 0.9041176583 0.1212136314 0.5000000000  Biso 1.0 Ni
Ni14 1.0000000000 0.8787695690 0.7828604128 0.5000000000  Biso 1.0 Ni
P15 1.0000000000 0.4068880620 0.2944029040 0.0000000000  Biso 1.0 P
P16 1.0000000000 0.7056014256 0.1124867956 0.0000000000  Biso 1.0 P
P17 1.0000000000 0.8875205009 0.5931159926 0.0000000000  Biso 1.0 P
P18 1.0000000000 0.1100938754 0.4048298091 0.5000000000  Biso 1.0 P
P19 1.0000000000 0.5951597150 0.7052528207 0.5000000000  Biso 1.0 P
P20 1.0000000000 0.2947371792 0.8899066197 0.5000000000  Biso 1.0 P
P21 1.0000000000 0.0000000000 0.0000000000 0.0000000000  Biso 1.0 P
