# AFLOW.org Repositories
# Er2Ni1Sn6   [ORCC,ORCC,oS18] (STD_PRIM d
data_Er2Ni1Sn6
_pd_phase_name Er2Ni1Sn6
_cell_length_a  11.6105106917
_cell_length_b  11.6105106917
_cell_length_c  4.4678954554
_cell_angle_alpha  90.0000000000
_cell_angle_beta  90.0000000000
_cell_angle_gamma  158.1639277004
_symmetry_space_group_name_H-M  'P1'
_symmetry_Int_Tables_Number  1
loop_
_symmetry_equiv_pos_site_id
_symmetry_equiv_pos_as_xyz
  1  x,y,z
loop_
 _atom_site_label
 _atom_site_occupancy
 _atom_site_fract_x
 _atom_site_fract_y
 _atom_site_fract_z
 _atom_site_thermal_displace_type
 _atom_site_B_iso_or_equiv
 _atom_site_type_symbol
Er1 1.0000000000 0.8215420266 0.1784579734 0.0000000000  Biso 1.0 Er
Er2 1.0000000000 0.1784579734 0.8215420266 0.0000000000  Biso 1.0 Er
Ni3 1.0000000000 0.5000000000 0.5000000000 0.5000000000  Biso 1.0 Ni
Sn4 1.0000000000 0.5698112931 0.4301887069 0.0000000000  Biso 1.0 Sn
Sn5 1.0000000000 0.4301887069 0.5698112931 0.0000000000  Biso 1.0 Sn
Sn6 1.0000000000 0.9292099039 0.0707900961 0.5000000000  Biso 1.0 Sn
Sn7 1.0000000000 0.0707900961 0.9292099039 0.5000000000  Biso 1.0 Sn
Sn8 1.0000000000 0.2960640064 0.7039359936 0.5000000000  Biso 1.0 Sn
Sn9 1.0000000000 0.7039359936 0.2960640064 0.5000000000  Biso 1.0 Sn
