# AFLOW.org Repositories
# Er2S3   [ORC,ORC,oP20] (STD_PRIM doi:10.
data_Er2S3
_pd_phase_name Er2S3
_cell_length_a  3.8330826107
_cell_length_b  10.4172265535
_cell_length_c  10.5564457094
_cell_angle_alpha  90.0000000000
_cell_angle_beta  90.0000000000
_cell_angle_gamma  90.0000000000
_symmetry_space_group_name_H-M  'P1'
_symmetry_Int_Tables_Number  1
loop_
_symmetry_equiv_pos_site_id
_symmetry_equiv_pos_as_xyz
  1  x,y,z
loop_
 _atom_site_label
 _atom_site_occupancy
 _atom_site_fract_x
 _atom_site_fract_y
 _atom_site_fract_z
 _atom_site_thermal_displace_type
 _atom_site_B_iso_or_equiv
 _atom_site_type_symbol
Er1 1.0000000000 0.7500000000 0.6870819655 0.9900380300  Biso 1.0 Er
Er2 1.0000000000 0.2500000000 0.1870819655 0.5099619700  Biso 1.0 Er
Er3 1.0000000000 0.2500000000 0.3129180345 0.0099619700  Biso 1.0 Er
Er4 1.0000000000 0.7500000000 0.8129180345 0.4900380300  Biso 1.0 Er
Er5 1.0000000000 0.2500000000 0.9960307660 0.1921021705  Biso 1.0 Er
Er6 1.0000000000 0.7500000000 0.4960307660 0.3078978295  Biso 1.0 Er
Er7 1.0000000000 0.7500000000 0.0039692340 0.8078978295  Biso 1.0 Er
Er8 1.0000000000 0.2500000000 0.5039692340 0.6921021705  Biso 1.0 Er
S9 1.0000000000 0.7500000000 0.1265241992 0.0455855824  Biso 1.0 S
S10 1.0000000000 0.2500000000 0.6265241992 0.4544144176  Biso 1.0 S
S11 1.0000000000 0.2500000000 0.8734758008 0.9544144176  Biso 1.0 S
S12 1.0000000000 0.7500000000 0.3734758008 0.5455855824  Biso 1.0 S
S13 1.0000000000 0.2500000000 0.5550927310 0.1191625647  Biso 1.0 S
S14 1.0000000000 0.7500000000 0.0550927310 0.3808374353  Biso 1.0 S
S15 1.0000000000 0.7500000000 0.4449072690 0.8808374353  Biso 1.0 S
S16 1.0000000000 0.2500000000 0.9449072690 0.6191625647  Biso 1.0 S
S17 1.0000000000 0.7500000000 0.8043754240 0.2276305313  Biso 1.0 S
S18 1.0000000000 0.2500000000 0.3043754240 0.2723694687  Biso 1.0 S
S19 1.0000000000 0.2500000000 0.1956245760 0.7723694687  Biso 1.0 S
S20 1.0000000000 0.7500000000 0.6956245760 0.7276305313  Biso 1.0 S
