# AFLOW.org Repositories
# Er3F10K1   [FCC,FCC,cF112] (STD_PRIM doi
data_Er3F10K1
_pd_phase_name Er3F10K1
_cell_length_a  8.1735390791
_cell_length_b  8.1735390791
_cell_length_c  8.1735390791
_cell_angle_alpha  60.0000000000
_cell_angle_beta  60.0000000000
_cell_angle_gamma  60.0000000000
_symmetry_space_group_name_H-M  'P1'
_symmetry_Int_Tables_Number  1
loop_
_symmetry_equiv_pos_site_id
_symmetry_equiv_pos_as_xyz
  1  x,y,z
loop_
 _atom_site_label
 _atom_site_occupancy
 _atom_site_fract_x
 _atom_site_fract_y
 _atom_site_fract_z
 _atom_site_thermal_displace_type
 _atom_site_B_iso_or_equiv
 _atom_site_type_symbol
Er1 1.0000000000 0.7595388454 0.2404611546 0.7595388454  Biso 1.0 Er
Er2 1.0000000000 0.2404611546 0.7595388454 0.2404611546  Biso 1.0 Er
Er3 1.0000000000 0.2404611546 0.7595388454 0.7595388454  Biso 1.0 Er
Er4 1.0000000000 0.7595388454 0.2404611546 0.2404611546  Biso 1.0 Er
Er5 1.0000000000 0.7595388454 0.7595388454 0.2404611546  Biso 1.0 Er
Er6 1.0000000000 0.2404611546 0.2404611546 0.7595388454  Biso 1.0 Er
F7 1.0000000000 0.8883216495 0.8883216495 0.8883216495  Biso 1.0 F
F8 1.0000000000 0.8883216495 0.8883216495 0.3350350514  Biso 1.0 F
F9 1.0000000000 0.3350350514 0.8883216495 0.8883216495  Biso 1.0 F
F10 1.0000000000 0.8883216495 0.3350350514 0.8883216495  Biso 1.0 F
F11 1.0000000000 0.1116783505 0.1116783505 0.6649649486  Biso 1.0 F
F12 1.0000000000 0.1116783505 0.1116783505 0.1116783505  Biso 1.0 F
F13 1.0000000000 0.6649649486 0.1116783505 0.1116783505  Biso 1.0 F
F14 1.0000000000 0.1116783505 0.6649649486 0.1116783505  Biso 1.0 F
F15 1.0000000000 0.5000000000 0.1701454997 0.5000000000  Biso 1.0 F
F16 1.0000000000 0.1701454997 0.5000000000 0.8298545003  Biso 1.0 F
F17 1.0000000000 0.8298545003 0.5000000000 0.1701454997  Biso 1.0 F
F18 1.0000000000 0.5000000000 0.8298545003 0.5000000000  Biso 1.0 F
F19 1.0000000000 0.1701454997 0.5000000000 0.5000000000  Biso 1.0 F
F20 1.0000000000 0.5000000000 0.8298545003 0.1701454997  Biso 1.0 F
F21 1.0000000000 0.5000000000 0.1701454997 0.8298545003  Biso 1.0 F
F22 1.0000000000 0.8298545003 0.5000000000 0.5000000000  Biso 1.0 F
F23 1.0000000000 0.5000000000 0.5000000000 0.1701454997  Biso 1.0 F
F24 1.0000000000 0.8298545003 0.1701454997 0.5000000000  Biso 1.0 F
F25 1.0000000000 0.1701454997 0.8298545003 0.5000000000  Biso 1.0 F
F26 1.0000000000 0.5000000000 0.5000000000 0.8298545003  Biso 1.0 F
K27 1.0000000000 0.7500000000 0.7500000000 0.7500000000  Biso 1.0 K
K28 1.0000000000 0.2500000000 0.2500000000 0.2500000000  Biso 1.0 K
