# AFLOW.org Repositories
# Er3Ge13Ir4   [CUB,CUB,cP40] (STD_PRIM do
data_Er3Ge13Ir4
_pd_phase_name Er3Ge13Ir4
_cell_length_a  8.9898263341
_cell_length_b  8.9898263341
_cell_length_c  8.9898263341
_cell_angle_alpha  90.0000000000
_cell_angle_beta  90.0000000000
_cell_angle_gamma  90.0000000000
_symmetry_space_group_name_H-M  'P1'
_symmetry_Int_Tables_Number  1
loop_
_symmetry_equiv_pos_site_id
_symmetry_equiv_pos_as_xyz
  1  x,y,z
loop_
 _atom_site_label
 _atom_site_occupancy
 _atom_site_fract_x
 _atom_site_fract_y
 _atom_site_fract_z
 _atom_site_thermal_displace_type
 _atom_site_B_iso_or_equiv
 _atom_site_type_symbol
Er1 1.0000000000 0.7500000000 0.0000000000 0.5000000000  Biso 1.0 Er
Er2 1.0000000000 0.2500000000 0.0000000000 0.5000000000  Biso 1.0 Er
Er3 1.0000000000 0.5000000000 0.7500000000 0.0000000000  Biso 1.0 Er
Er4 1.0000000000 0.5000000000 0.2500000000 0.0000000000  Biso 1.0 Er
Er5 1.0000000000 0.0000000000 0.5000000000 0.2500000000  Biso 1.0 Er
Er6 1.0000000000 0.0000000000 0.5000000000 0.7500000000  Biso 1.0 Er
Ge7 1.0000000000 0.0000000000 0.0000000000 0.0000000000  Biso 1.0 Ge
Ge8 1.0000000000 0.5000000000 0.5000000000 0.5000000000  Biso 1.0 Ge
Ge9 1.0000000000 0.0000000000 0.8547998933 0.3080594103  Biso 1.0 Ge
Ge10 1.0000000000 0.0000000000 0.1452001067 0.3080594103  Biso 1.0 Ge
Ge11 1.0000000000 0.0000000000 0.8547998933 0.6919405897  Biso 1.0 Ge
Ge12 1.0000000000 0.0000000000 0.1452001067 0.6919405897  Biso 1.0 Ge
Ge13 1.0000000000 0.6919405897 0.0000000000 0.1452001067  Biso 1.0 Ge
Ge14 1.0000000000 0.6919405897 0.0000000000 0.8547998933  Biso 1.0 Ge
Ge15 1.0000000000 0.3080594103 0.0000000000 0.1452001067  Biso 1.0 Ge
Ge16 1.0000000000 0.3080594103 0.0000000000 0.8547998933  Biso 1.0 Ge
Ge17 1.0000000000 0.8547998933 0.6919405897 0.0000000000  Biso 1.0 Ge
Ge18 1.0000000000 0.1452001067 0.6919405897 0.0000000000  Biso 1.0 Ge
Ge19 1.0000000000 0.8547998933 0.3080594103 0.0000000000  Biso 1.0 Ge
Ge20 1.0000000000 0.1452001067 0.3080594103 0.0000000000  Biso 1.0 Ge
Ge21 1.0000000000 0.3547998933 0.5000000000 0.1919405897  Biso 1.0 Ge
Ge22 1.0000000000 0.6452001067 0.5000000000 0.1919405897  Biso 1.0 Ge
Ge23 1.0000000000 0.3547998933 0.5000000000 0.8080594103  Biso 1.0 Ge
Ge24 1.0000000000 0.6452001067 0.5000000000 0.8080594103  Biso 1.0 Ge
Ge25 1.0000000000 0.5000000000 0.1919405897 0.3547998933  Biso 1.0 Ge
Ge26 1.0000000000 0.5000000000 0.1919405897 0.6452001067  Biso 1.0 Ge
Ge27 1.0000000000 0.5000000000 0.8080594103 0.3547998933  Biso 1.0 Ge
Ge28 1.0000000000 0.5000000000 0.8080594103 0.6452001067  Biso 1.0 Ge
Ge29 1.0000000000 0.1919405897 0.3547998933 0.5000000000  Biso 1.0 Ge
Ge30 1.0000000000 0.1919405897 0.6452001067 0.5000000000  Biso 1.0 Ge
Ge31 1.0000000000 0.8080594103 0.3547998933 0.5000000000  Biso 1.0 Ge
Ge32 1.0000000000 0.8080594103 0.6452001067 0.5000000000  Biso 1.0 Ge
Ir33 1.0000000000 0.7500000000 0.7500000000 0.2500000000  Biso 1.0 Ir
Ir34 1.0000000000 0.2500000000 0.2500000000 0.2500000000  Biso 1.0 Ir
Ir35 1.0000000000 0.2500000000 0.7500000000 0.7500000000  Biso 1.0 Ir
Ir36 1.0000000000 0.7500000000 0.2500000000 0.7500000000  Biso 1.0 Ir
Ir37 1.0000000000 0.2500000000 0.2500000000 0.7500000000  Biso 1.0 Ir
Ir38 1.0000000000 0.7500000000 0.7500000000 0.7500000000  Biso 1.0 Ir
Ir39 1.0000000000 0.7500000000 0.2500000000 0.2500000000  Biso 1.0 Ir
Ir40 1.0000000000 0.2500000000 0.7500000000 0.2500000000  Biso 1.0 Ir
