# AFLOW.org Repositories
# Er3Ge4   [ORCC,ORCC,oS28] (STD_PRIM doi:
data_Er3Ge4
_pd_phase_name Er3Ge4
_cell_length_a  5.6715203120
_cell_length_b  5.6715203120
_cell_length_c  14.2024733725
_cell_angle_alpha  90.0000000000
_cell_angle_beta  90.0000000000
_cell_angle_gamma  138.3966458522
_symmetry_space_group_name_H-M  'P1'
_symmetry_Int_Tables_Number  1
loop_
_symmetry_equiv_pos_site_id
_symmetry_equiv_pos_as_xyz
  1  x,y,z
loop_
 _atom_site_label
 _atom_site_occupancy
 _atom_site_fract_x
 _atom_site_fract_y
 _atom_site_fract_z
 _atom_site_thermal_displace_type
 _atom_site_B_iso_or_equiv
 _atom_site_type_symbol
Er1 1.0000000000 0.0477949008 0.9522050992 0.7500000000  Biso 1.0 Er
Er2 1.0000000000 0.9522050992 0.0477949008 0.2500000000  Biso 1.0 Er
Er3 1.0000000000 0.3316420059 0.6683579941 0.9031427549  Biso 1.0 Er
Er4 1.0000000000 0.6683579941 0.3316420059 0.4031427549  Biso 1.0 Er
Er5 1.0000000000 0.3316420059 0.6683579941 0.5968572451  Biso 1.0 Er
Er6 1.0000000000 0.6683579941 0.3316420059 0.0968572451  Biso 1.0 Er
Ge7 1.0000000000 0.0000000000 0.0000000000 0.0000000000  Biso 1.0 Ge
Ge8 1.0000000000 0.0000000000 0.0000000000 0.5000000000  Biso 1.0 Ge
Ge9 1.0000000000 0.7771902329 0.2228097671 0.7500000000  Biso 1.0 Ge
Ge10 1.0000000000 0.2228097671 0.7771902329 0.2500000000  Biso 1.0 Ge
Ge11 1.0000000000 0.3789433762 0.6210566238 0.1085037208  Biso 1.0 Ge
Ge12 1.0000000000 0.6210566238 0.3789433762 0.6085037208  Biso 1.0 Ge
Ge13 1.0000000000 0.3789433762 0.6210566238 0.3914962792  Biso 1.0 Ge
Ge14 1.0000000000 0.6210566238 0.3789433762 0.8914962792  Biso 1.0 Ge
