# AFLOW.org Repositories
# Er3Os1   [ORC,ORC,oP16] (STD_PRIM doi:10
data_Er3Os1
_pd_phase_name Er3Os1
_cell_length_a  6.2521445829
_cell_length_b  7.3482245181
_cell_length_c  8.9512713240
_cell_angle_alpha  90.0000000000
_cell_angle_beta  90.0000000000
_cell_angle_gamma  90.0000000000
_symmetry_space_group_name_H-M  'P1'
_symmetry_Int_Tables_Number  1
loop_
_symmetry_equiv_pos_site_id
_symmetry_equiv_pos_as_xyz
  1  x,y,z
loop_
 _atom_site_label
 _atom_site_occupancy
 _atom_site_fract_x
 _atom_site_fract_y
 _atom_site_fract_z
 _atom_site_thermal_displace_type
 _atom_site_B_iso_or_equiv
 _atom_site_type_symbol
Er1 1.0000000000 0.8343319371 0.1747995151 0.9370629446  Biso 1.0 Er
Er2 1.0000000000 0.3343319371 0.3252004849 0.0629370554  Biso 1.0 Er
Er3 1.0000000000 0.1656680629 0.8252004849 0.4370629446  Biso 1.0 Er
Er4 1.0000000000 0.6656680629 0.6747995151 0.5629370554  Biso 1.0 Er
Er5 1.0000000000 0.1656680629 0.8252004849 0.0629370554  Biso 1.0 Er
Er6 1.0000000000 0.6656680629 0.6747995151 0.9370629446  Biso 1.0 Er
Er7 1.0000000000 0.8343319371 0.1747995151 0.5629370554  Biso 1.0 Er
Er8 1.0000000000 0.3343319371 0.3252004849 0.4370629446  Biso 1.0 Er
Er9 1.0000000000 0.3694417751 0.0390247277 0.7500000000  Biso 1.0 Er
Er10 1.0000000000 0.8694417751 0.4609752723 0.2500000000  Biso 1.0 Er
Er11 1.0000000000 0.6305582249 0.9609752723 0.2500000000  Biso 1.0 Er
Er12 1.0000000000 0.1305582249 0.5390247277 0.7500000000  Biso 1.0 Er
Os13 1.0000000000 0.5385925604 0.3813338288 0.7500000000  Biso 1.0 Os
Os14 1.0000000000 0.0385925604 0.1186661712 0.2500000000  Biso 1.0 Os
Os15 1.0000000000 0.4614074396 0.6186661712 0.2500000000  Biso 1.0 Os
Os16 1.0000000000 0.9614074396 0.8813338288 0.7500000000  Biso 1.0 Os
