# AFLOW.org Repositories
# Er3Rh1   [ORC,ORC,oP16] (STD_PRIM doi:10
data_Er3Rh1
_pd_phase_name Er3Rh1
_cell_length_a  6.1994315020
_cell_length_b  7.0666165217
_cell_length_c  9.3967216893
_cell_angle_alpha  90.0000000000
_cell_angle_beta  90.0000000000
_cell_angle_gamma  90.0000000000
_symmetry_space_group_name_H-M  'P1'
_symmetry_Int_Tables_Number  1
loop_
_symmetry_equiv_pos_site_id
_symmetry_equiv_pos_as_xyz
  1  x,y,z
loop_
 _atom_site_label
 _atom_site_occupancy
 _atom_site_fract_x
 _atom_site_fract_y
 _atom_site_fract_z
 _atom_site_thermal_displace_type
 _atom_site_B_iso_or_equiv
 _atom_site_type_symbol
Er1 1.0000000000 0.8613582453 0.0344848602 0.7500000000  Biso 1.0 Er
Er2 1.0000000000 0.3613582453 0.4655151398 0.2500000000  Biso 1.0 Er
Er3 1.0000000000 0.1386417547 0.9655151398 0.2500000000  Biso 1.0 Er
Er4 1.0000000000 0.6386417547 0.5344848602 0.7500000000  Biso 1.0 Er
Er5 1.0000000000 0.3293166414 0.1780578123 0.9364014984  Biso 1.0 Er
Er6 1.0000000000 0.8293166414 0.3219421877 0.0635985016  Biso 1.0 Er
Er7 1.0000000000 0.6706833586 0.8219421877 0.4364014984  Biso 1.0 Er
Er8 1.0000000000 0.1706833586 0.6780578123 0.5635985016  Biso 1.0 Er
Er9 1.0000000000 0.6706833586 0.8219421877 0.0635985016  Biso 1.0 Er
Er10 1.0000000000 0.1706833586 0.6780578123 0.9364014984  Biso 1.0 Er
Er11 1.0000000000 0.3293166414 0.1780578123 0.5635985016  Biso 1.0 Er
Er12 1.0000000000 0.8293166414 0.3219421877 0.4364014984  Biso 1.0 Er
Rh13 1.0000000000 0.0582560500 0.3815381061 0.7500000000  Biso 1.0 Rh
Rh14 1.0000000000 0.5582560500 0.1184618939 0.2500000000  Biso 1.0 Rh
Rh15 1.0000000000 0.9417439500 0.6184618939 0.2500000000  Biso 1.0 Rh
Rh16 1.0000000000 0.4417439500 0.8815381061 0.7500000000  Biso 1.0 Rh
