# AFLOW.org Repositories
# Er3Sn7   [ORCC,ORCC,oS20] (STD_PRIM doi:
data_Er3Sn7
_pd_phase_name Er3Sn7
_cell_length_a  13.4870998765
_cell_length_b  13.4870998765
_cell_length_c  4.5391634051
_cell_angle_alpha  90.0000000000
_cell_angle_beta  90.0000000000
_cell_angle_gamma  161.1309032883
_symmetry_space_group_name_H-M  'P1'
_symmetry_Int_Tables_Number  1
loop_
_symmetry_equiv_pos_site_id
_symmetry_equiv_pos_as_xyz
  1  x,y,z
loop_
 _atom_site_label
 _atom_site_occupancy
 _atom_site_fract_x
 _atom_site_fract_y
 _atom_site_fract_z
 _atom_site_thermal_displace_type
 _atom_site_B_iso_or_equiv
 _atom_site_type_symbol
Er1 1.0000000000 0.0000000000 0.0000000000 0.5000000000  Biso 1.0 Er
Er2 1.0000000000 0.6897108956 0.3102891044 0.0000000000  Biso 1.0 Er
Er3 1.0000000000 0.3102891044 0.6897108956 0.0000000000  Biso 1.0 Er
Sn4 1.0000000000 0.5000000000 0.5000000000 0.0000000000  Biso 1.0 Sn
Sn5 1.0000000000 0.5975385395 0.4024614605 0.5000000000  Biso 1.0 Sn
Sn6 1.0000000000 0.4024614605 0.5975385395 0.5000000000  Biso 1.0 Sn
Sn7 1.0000000000 0.9034694597 0.0965305403 0.0000000000  Biso 1.0 Sn
Sn8 1.0000000000 0.0965305403 0.9034694597 0.0000000000  Biso 1.0 Sn
Sn9 1.0000000000 0.7896989058 0.2103010942 0.5000000000  Biso 1.0 Sn
Sn10 1.0000000000 0.2103010942 0.7896989058 0.5000000000  Biso 1.0 Sn
