# AFLOW.org Repositories
# Er5Ge3   [HEX,HEX,hP16] (STD_PRIM doi:10
data_Er5Ge3
_pd_phase_name Er5Ge3
_cell_length_a  8.4221138259
_cell_length_b  8.4221138259
_cell_length_c  6.3311552111
_cell_angle_alpha  90.0000000000
_cell_angle_beta  90.0000000000
_cell_angle_gamma  120.0000000000
_symmetry_space_group_name_H-M  'P1'
_symmetry_Int_Tables_Number  1
loop_
_symmetry_equiv_pos_site_id
_symmetry_equiv_pos_as_xyz
  1  x,y,z
loop_
 _atom_site_label
 _atom_site_occupancy
 _atom_site_fract_x
 _atom_site_fract_y
 _atom_site_fract_z
 _atom_site_thermal_displace_type
 _atom_site_B_iso_or_equiv
 _atom_site_type_symbol
Er1 1.0000000000 0.6666757702 0.3333515404 0.0000000000  Biso 1.0 Er
Er2 1.0000000000 0.3333242298 0.6666484596 0.5000000000  Biso 1.0 Er
Er3 1.0000000000 0.3333242298 0.6666484596 0.0000000000  Biso 1.0 Er
Er4 1.0000000000 0.6666757702 0.3333515404 0.5000000000  Biso 1.0 Er
Er5 1.0000000000 0.0000000000 0.7583007033 0.2500000000  Biso 1.0 Er
Er6 1.0000000000 0.2416992967 0.2416992967 0.2500000000  Biso 1.0 Er
Er7 1.0000000000 0.7582894383 0.0000000000 0.2500000000  Biso 1.0 Er
Er8 1.0000000000 0.0000000000 0.2416992967 0.7500000000  Biso 1.0 Er
Er9 1.0000000000 0.7583007033 0.7583007033 0.7500000000  Biso 1.0 Er
Er10 1.0000000000 0.2417105617 0.0000000000 0.7500000000  Biso 1.0 Er
Ge11 1.0000000000 0.0000000000 0.3934075372 0.2500000000  Biso 1.0 Ge
Ge12 1.0000000000 0.6065924628 0.6065924628 0.2500000000  Biso 1.0 Ge
Ge13 1.0000000000 0.3934122319 0.0000000000 0.2500000000  Biso 1.0 Ge
Ge14 1.0000000000 0.0000000000 0.6065924628 0.7500000000  Biso 1.0 Ge
Ge15 1.0000000000 0.3934075372 0.3934075372 0.7500000000  Biso 1.0 Ge
Ge16 1.0000000000 0.6065877681 0.0000000000 0.7500000000  Biso 1.0 Ge
