# AFLOW.org Repositories
# Er5Ni1Pb3   [HEX,HEX,hP18] (STD_PRIM doi
data_Er5Ni1Pb3
_pd_phase_name Er5Ni1Pb3
_cell_length_a  9.0830782467
_cell_length_b  9.0830782467
_cell_length_c  6.6390798245
_cell_angle_alpha  90.0000000000
_cell_angle_beta  90.0000000000
_cell_angle_gamma  120.0000000000
_symmetry_space_group_name_H-M  'P1'
_symmetry_Int_Tables_Number  1
loop_
_symmetry_equiv_pos_site_id
_symmetry_equiv_pos_as_xyz
  1  x,y,z
loop_
 _atom_site_label
 _atom_site_occupancy
 _atom_site_fract_x
 _atom_site_fract_y
 _atom_site_fract_z
 _atom_site_thermal_displace_type
 _atom_site_B_iso_or_equiv
 _atom_site_type_symbol
Er1 1.0000000000 0.2376613173 0.0000000000 0.2500000000  Biso 1.0 Er
Er2 1.0000000000 0.0000000000 0.2376613173 0.2500000000  Biso 1.0 Er
Er3 1.0000000000 0.7623314791 0.7623314791 0.2500000000  Biso 1.0 Er
Er4 1.0000000000 0.7623386827 0.0000000000 0.7500000000  Biso 1.0 Er
Er5 1.0000000000 0.0000000000 0.7623386827 0.7500000000  Biso 1.0 Er
Er6 1.0000000000 0.2376685209 0.2376685209 0.7500000000  Biso 1.0 Er
Er7 1.0000000000 0.3333180151 0.6666819849 0.0000000000  Biso 1.0 Er
Er8 1.0000000000 0.6666819849 0.3333180151 0.5000000000  Biso 1.0 Er
Er9 1.0000000000 0.6666819849 0.3333180151 0.0000000000  Biso 1.0 Er
Er10 1.0000000000 0.3333180151 0.6666819849 0.5000000000  Biso 1.0 Er
Ni11 1.0000000000 0.0000000000 0.0000000000 0.0000000000  Biso 1.0 Ni
Ni12 1.0000000000 0.0000000000 0.0000000000 0.5000000000  Biso 1.0 Ni
Pb13 1.0000000000 0.6011155772 0.0000000000 0.2500000000  Biso 1.0 Pb
Pb14 1.0000000000 0.0000000000 0.6011155772 0.2500000000  Biso 1.0 Pb
Pb15 1.0000000000 0.3988914420 0.3988914420 0.2500000000  Biso 1.0 Pb
Pb16 1.0000000000 0.3988844228 0.0000000000 0.7500000000  Biso 1.0 Pb
Pb17 1.0000000000 0.0000000000 0.3988844228 0.7500000000  Biso 1.0 Pb
Pb18 1.0000000000 0.6011085580 0.6011085580 0.7500000000  Biso 1.0 Pb
