# AFLOW.org Repositories
# Er5Si3   [HEX,HEX,hP16] (STD_PRIM doi:10
data_Er5Si3
_pd_phase_name Er5Si3
_cell_length_a  8.3591202572
_cell_length_b  8.3591202572
_cell_length_c  6.2848915828
_cell_angle_alpha  90.0000000000
_cell_angle_beta  90.0000000000
_cell_angle_gamma  120.0000000000
_symmetry_space_group_name_H-M  'P1'
_symmetry_Int_Tables_Number  1
loop_
_symmetry_equiv_pos_site_id
_symmetry_equiv_pos_as_xyz
  1  x,y,z
loop_
 _atom_site_label
 _atom_site_occupancy
 _atom_site_fract_x
 _atom_site_fract_y
 _atom_site_fract_z
 _atom_site_thermal_displace_type
 _atom_site_B_iso_or_equiv
 _atom_site_type_symbol
Er1 1.0000000000 0.6666745737 0.3333491474 0.0000000000  Biso 1.0 Er
Er2 1.0000000000 0.3333254263 0.6666508526 0.5000000000  Biso 1.0 Er
Er3 1.0000000000 0.3333254263 0.6666508526 0.0000000000  Biso 1.0 Er
Er4 1.0000000000 0.6666745737 0.3333491474 0.5000000000  Biso 1.0 Er
Er5 1.0000000000 0.0000000000 0.7573250392 0.2500000000  Biso 1.0 Er
Er6 1.0000000000 0.2426749608 0.2426749608 0.2500000000  Biso 1.0 Er
Er7 1.0000000000 0.7573063855 0.0000000000 0.2500000000  Biso 1.0 Er
Er8 1.0000000000 0.0000000000 0.2426749608 0.7500000000  Biso 1.0 Er
Er9 1.0000000000 0.7573250392 0.7573250392 0.7500000000  Biso 1.0 Er
Er10 1.0000000000 0.2426936145 0.0000000000 0.7500000000  Biso 1.0 Er
Si11 1.0000000000 0.0000000000 0.3943733442 0.2500000000  Biso 1.0 Si
Si12 1.0000000000 0.6056266558 0.6056266558 0.2500000000  Biso 1.0 Si
Si13 1.0000000000 0.3943826896 0.0000000000 0.2500000000  Biso 1.0 Si
Si14 1.0000000000 0.0000000000 0.6056266558 0.7500000000  Biso 1.0 Si
Si15 1.0000000000 0.3943733442 0.3943733442 0.7500000000  Biso 1.0 Si
Si16 1.0000000000 0.6056173104 0.0000000000 0.7500000000  Biso 1.0 Si
