# AFLOW.org Repositories
# Er5S7   [MCLC,MCLC1,mS24] (STD_PRIM doi:
data_Er5S7
_pd_phase_name Er5S7
_cell_length_a  6.6317451052
_cell_length_b  6.6317451052
_cell_length_c  11.5276325616
_cell_angle_alpha  76.0428396560
_cell_angle_beta  76.0428396560
_cell_angle_gamma  33.0215044170
_symmetry_space_group_name_H-M  'P1'
_symmetry_Int_Tables_Number  1
loop_
_symmetry_equiv_pos_site_id
_symmetry_equiv_pos_as_xyz
  1  x,y,z
loop_
 _atom_site_label
 _atom_site_occupancy
 _atom_site_fract_x
 _atom_site_fract_y
 _atom_site_fract_z
 _atom_site_thermal_displace_type
 _atom_site_B_iso_or_equiv
 _atom_site_type_symbol
Er1 1.0000000000 0.0000000000 0.0000000000 0.0000000000  Biso 1.0 Er
Er2 1.0000000000 0.8879571650 0.8879571650 0.4217323884  Biso 1.0 Er
Er3 1.0000000000 0.1120428350 0.1120428350 0.5782676116  Biso 1.0 Er
Er4 1.0000000000 0.6995955776 0.6995955776 0.1879283701  Biso 1.0 Er
Er5 1.0000000000 0.3004044224 0.3004044224 0.8120716299  Biso 1.0 Er
S6 1.0000000000 0.5000000000 0.5000000000 0.5000000000  Biso 1.0 S
S7 1.0000000000 0.3406410143 0.3406410143 0.0512827863  Biso 1.0 S
S8 1.0000000000 0.6593589857 0.6593589857 0.9487172137  Biso 1.0 S
S9 1.0000000000 0.0409059868 0.0409059868 0.2151144051  Biso 1.0 S
S10 1.0000000000 0.9590940132 0.9590940132 0.7848855949  Biso 1.0 S
S11 1.0000000000 0.7408648658 0.7408648658 0.6473006796  Biso 1.0 S
S12 1.0000000000 0.2591351342 0.2591351342 0.3526993204  Biso 1.0 S
