# AFLOW.org Repositories
# F10K1Tb3   [FCC,FCC,cF112] (STD_PRIM doi
data_F10K1Tb3
_pd_phase_name F10K1Tb3
_cell_length_a  8.2972749170
_cell_length_b  8.2972749170
_cell_length_c  8.2972749170
_cell_angle_alpha  60.0000000000
_cell_angle_beta  60.0000000000
_cell_angle_gamma  60.0000000000
_symmetry_space_group_name_H-M  'P1'
_symmetry_Int_Tables_Number  1
loop_
_symmetry_equiv_pos_site_id
_symmetry_equiv_pos_as_xyz
  1  x,y,z
loop_
 _atom_site_label
 _atom_site_occupancy
 _atom_site_fract_x
 _atom_site_fract_y
 _atom_site_fract_z
 _atom_site_thermal_displace_type
 _atom_site_B_iso_or_equiv
 _atom_site_type_symbol
F1 1.0000000000 0.5000000000 0.8298976707 0.5000000000  Biso 1.0 F
F2 1.0000000000 0.1701023293 0.5000000000 0.8298976707  Biso 1.0 F
F3 1.0000000000 0.8298976707 0.5000000000 0.1701023293  Biso 1.0 F
F4 1.0000000000 0.5000000000 0.1701023293 0.5000000000  Biso 1.0 F
F5 1.0000000000 0.1701023293 0.8298976707 0.5000000000  Biso 1.0 F
F6 1.0000000000 0.5000000000 0.5000000000 0.1701023293  Biso 1.0 F
F7 1.0000000000 0.5000000000 0.5000000000 0.8298976707  Biso 1.0 F
F8 1.0000000000 0.8298976707 0.1701023293 0.5000000000  Biso 1.0 F
F9 1.0000000000 0.5000000000 0.8298976707 0.1701023293  Biso 1.0 F
F10 1.0000000000 0.8298976707 0.5000000000 0.5000000000  Biso 1.0 F
F11 1.0000000000 0.1701023293 0.5000000000 0.5000000000  Biso 1.0 F
F12 1.0000000000 0.5000000000 0.1701023293 0.8298976707  Biso 1.0 F
F13 1.0000000000 0.1117005501 0.6648983496 0.1117005501  Biso 1.0 F
F14 1.0000000000 0.1117005501 0.1117005501 0.6648983496  Biso 1.0 F
F15 1.0000000000 0.6648983496 0.1117005501 0.1117005501  Biso 1.0 F
F16 1.0000000000 0.1117005501 0.1117005501 0.1117005501  Biso 1.0 F
F17 1.0000000000 0.8882994499 0.8882994499 0.3351016504  Biso 1.0 F
F18 1.0000000000 0.8882994499 0.3351016504 0.8882994499  Biso 1.0 F
F19 1.0000000000 0.3351016504 0.8882994499 0.8882994499  Biso 1.0 F
F20 1.0000000000 0.8882994499 0.8882994499 0.8882994499  Biso 1.0 F
K21 1.0000000000 0.2500000000 0.2500000000 0.2500000000  Biso 1.0 K
K22 1.0000000000 0.7500000000 0.7500000000 0.7500000000  Biso 1.0 K
Tb23 1.0000000000 0.2403567102 0.7596432898 0.2403567102  Biso 1.0 Tb
Tb24 1.0000000000 0.7596432898 0.2403567102 0.7596432898  Biso 1.0 Tb
Tb25 1.0000000000 0.7596432898 0.7596432898 0.2403567102  Biso 1.0 Tb
Tb26 1.0000000000 0.2403567102 0.2403567102 0.7596432898  Biso 1.0 Tb
Tb27 1.0000000000 0.2403567102 0.7596432898 0.7596432898  Biso 1.0 Tb
Tb28 1.0000000000 0.7596432898 0.2403567102 0.2403567102  Biso 1.0 Tb
