# AFLOW.org Repositories
# F2Zn1   [ORC,ORC,oP12] (STD_PRIM doi:10.
data_F2Zn1
_pd_phase_name F2Zn1
_cell_length_a  4.6225136870
_cell_length_b  5.1126452937
_cell_length_c  5.6387599759
_cell_angle_alpha  90.0000000000
_cell_angle_beta  90.0000000000
_cell_angle_gamma  90.0000000000
_symmetry_space_group_name_H-M  'P1'
_symmetry_Int_Tables_Number  1
loop_
_symmetry_equiv_pos_site_id
_symmetry_equiv_pos_as_xyz
  1  x,y,z
loop_
 _atom_site_label
 _atom_site_occupancy
 _atom_site_fract_x
 _atom_site_fract_y
 _atom_site_fract_z
 _atom_site_thermal_displace_type
 _atom_site_B_iso_or_equiv
 _atom_site_type_symbol
F1 1.0000000000 0.7305832530 0.4185926114 0.3839145829  Biso 1.0 F
F2 1.0000000000 0.7694167470 0.9185926114 0.1160854171  Biso 1.0 F
F3 1.0000000000 0.2694167470 0.0814073886 0.3839145829  Biso 1.0 F
F4 1.0000000000 0.2305832530 0.5814073886 0.1160854171  Biso 1.0 F
F5 1.0000000000 0.2694167470 0.5814073886 0.6160854171  Biso 1.0 F
F6 1.0000000000 0.2305832530 0.0814073886 0.8839145829  Biso 1.0 F
F7 1.0000000000 0.7305832530 0.9185926114 0.6160854171  Biso 1.0 F
F8 1.0000000000 0.7694167470 0.4185926114 0.8839145829  Biso 1.0 F
Zn9 1.0000000000 0.0000000000 0.2500000000 0.1572002995  Biso 1.0 Zn
Zn10 1.0000000000 0.5000000000 0.7500000000 0.3427997005  Biso 1.0 Zn
Zn11 1.0000000000 0.0000000000 0.7500000000 0.8427997005  Biso 1.0 Zn
Zn12 1.0000000000 0.5000000000 0.2500000000 0.6572002995  Biso 1.0 Zn
