# AFLOW.org Repositories
# F3Y1   [ORC,ORC,oP16] (STD_PRIM doi:10.1
data_F3Y1
_pd_phase_name F3Y1
_cell_length_a  4.5403189920
_cell_length_b  6.3690765804
_cell_length_c  6.9551127091
_cell_angle_alpha  90.0000000000
_cell_angle_beta  90.0000000000
_cell_angle_gamma  90.0000000000
_symmetry_space_group_name_H-M  'P1'
_symmetry_Int_Tables_Number  1
loop_
_symmetry_equiv_pos_site_id
_symmetry_equiv_pos_as_xyz
  1  x,y,z
loop_
 _atom_site_label
 _atom_site_occupancy
 _atom_site_fract_x
 _atom_site_fract_y
 _atom_site_fract_z
 _atom_site_thermal_displace_type
 _atom_site_B_iso_or_equiv
 _atom_site_type_symbol
F1 1.0000000000 0.3983357434 0.5264630558 0.7500000000  Biso 1.0 F
F2 1.0000000000 0.8983357434 0.9735369442 0.2500000000  Biso 1.0 F
F3 1.0000000000 0.6016642566 0.4735369442 0.2500000000  Biso 1.0 F
F4 1.0000000000 0.1016642566 0.0264630558 0.7500000000  Biso 1.0 F
F5 1.0000000000 0.6318481048 0.1636600929 0.9364682262  Biso 1.0 F
F6 1.0000000000 0.1318481048 0.3363399071 0.0635317738  Biso 1.0 F
F7 1.0000000000 0.3681518952 0.8363399071 0.4364682262  Biso 1.0 F
F8 1.0000000000 0.8681518952 0.6636600929 0.5635317738  Biso 1.0 F
F9 1.0000000000 0.3681518952 0.8363399071 0.0635317738  Biso 1.0 F
F10 1.0000000000 0.8681518952 0.6636600929 0.9364682262  Biso 1.0 F
F11 1.0000000000 0.6318481048 0.1636600929 0.5635317738  Biso 1.0 F
F12 1.0000000000 0.1318481048 0.3363399071 0.4364682262  Biso 1.0 F
Y13 1.0000000000 0.9471529082 0.3670781770 0.7500000000  Biso 1.0 Y
Y14 1.0000000000 0.4471529082 0.1329218230 0.2500000000  Biso 1.0 Y
Y15 1.0000000000 0.0528470918 0.6329218230 0.2500000000  Biso 1.0 Y
Y16 1.0000000000 0.5528470918 0.8670781770 0.7500000000  Biso 1.0 Y
