# AFLOW.org Repositories
# F3Y1   [CUB,CUB,cP12] (STD_PRIM doi:10.1
data_F3Y1
_pd_phase_name F3Y1
_cell_length_a  5.3913979626
_cell_length_b  5.3913979626
_cell_length_c  5.3913979626
_cell_angle_alpha  90.0000000000
_cell_angle_beta  90.0000000000
_cell_angle_gamma  90.0000000000
_symmetry_space_group_name_H-M  'P1'
_symmetry_Int_Tables_Number  1
loop_
_symmetry_equiv_pos_site_id
_symmetry_equiv_pos_as_xyz
  1  x,y,z
loop_
 _atom_site_label
 _atom_site_occupancy
 _atom_site_fract_x
 _atom_site_fract_y
 _atom_site_fract_z
 _atom_site_thermal_displace_type
 _atom_site_B_iso_or_equiv
 _atom_site_type_symbol
F1 1.0000000000 0.5000000000 0.5000000000 0.5000000000  Biso 1.0 F
F2 1.0000000000 0.7573847179 0.7573847179 0.2426152821  Biso 1.0 F
F3 1.0000000000 0.2426152821 0.2426152821 0.2426152821  Biso 1.0 F
F4 1.0000000000 0.2426152821 0.7573847179 0.7573847179  Biso 1.0 F
F5 1.0000000000 0.7573847179 0.2426152821 0.7573847179  Biso 1.0 F
F6 1.0000000000 0.7573847179 0.7573847179 0.7573847179  Biso 1.0 F
F7 1.0000000000 0.2426152821 0.2426152821 0.7573847179  Biso 1.0 F
F8 1.0000000000 0.7573847179 0.2426152821 0.2426152821  Biso 1.0 F
F9 1.0000000000 0.2426152821 0.7573847179 0.2426152821  Biso 1.0 F
Y10 1.0000000000 0.5000000000 0.5000000000 0.0000000000  Biso 1.0 Y
Y11 1.0000000000 0.0000000000 0.5000000000 0.5000000000  Biso 1.0 Y
Y12 1.0000000000 0.5000000000 0.0000000000 0.5000000000  Biso 1.0 Y
