# AFLOW.org Repositories
# F4K2Mg1   [BCT,BCT2,tI14] (STD_PRIM doi:
data_F4K2Mg1
_pd_phase_name F4K2Mg1
_cell_length_a  7.2497174786
_cell_length_b  7.2497174786
_cell_length_c  7.2497174786
_cell_angle_alpha  147.6989557135
_cell_angle_beta  147.6989557135
_cell_angle_gamma  46.3299670465
_symmetry_space_group_name_H-M  'P1'
_symmetry_Int_Tables_Number  1
loop_
_symmetry_equiv_pos_site_id
_symmetry_equiv_pos_as_xyz
  1  x,y,z
loop_
 _atom_site_label
 _atom_site_occupancy
 _atom_site_fract_x
 _atom_site_fract_y
 _atom_site_fract_z
 _atom_site_thermal_displace_type
 _atom_site_B_iso_or_equiv
 _atom_site_type_symbol
F1 1.0000000000 0.8478065094 0.8478065094 0.0000000000  Biso 1.0 F
F2 1.0000000000 0.1521934906 0.1521934906 0.0000000000  Biso 1.0 F
F3 1.0000000000 0.0000000000 0.5000000000 0.5000000000  Biso 1.0 F
F4 1.0000000000 0.5000000000 0.0000000000 0.5000000000  Biso 1.0 F
K5 1.0000000000 0.6482631053 0.6482631053 0.0000000000  Biso 1.0 K
K6 1.0000000000 0.3517368947 0.3517368947 0.0000000000  Biso 1.0 K
Mg7 1.0000000000 0.0000000000 0.0000000000 0.0000000000  Biso 1.0 Mg
