# AFLOW.org Repositories
# F4Ni1Rb2   [BCT,BCT2,tI14] (STD_PRIM doi
data_F4Ni1Rb2
_pd_phase_name F4Ni1Rb2
_cell_length_a  7.5487474629
_cell_length_b  7.5487474629
_cell_length_c  7.5487474629
_cell_angle_alpha  148.0354589854
_cell_angle_beta  148.0354589854
_cell_angle_gamma  45.8330239815
_symmetry_space_group_name_H-M  'P1'
_symmetry_Int_Tables_Number  1
loop_
_symmetry_equiv_pos_site_id
_symmetry_equiv_pos_as_xyz
  1  x,y,z
loop_
 _atom_site_label
 _atom_site_occupancy
 _atom_site_fract_x
 _atom_site_fract_y
 _atom_site_fract_z
 _atom_site_thermal_displace_type
 _atom_site_B_iso_or_equiv
 _atom_site_type_symbol
F1 1.0000000000 0.8536254029 0.8536254029 0.0000000000  Biso 1.0 F
F2 1.0000000000 0.1463745971 0.1463745971 0.0000000000  Biso 1.0 F
F3 1.0000000000 0.0000000000 0.5000000000 0.5000000000  Biso 1.0 F
F4 1.0000000000 0.5000000000 0.0000000000 0.5000000000  Biso 1.0 F
Ni5 1.0000000000 0.0000000000 0.0000000000 0.0000000000  Biso 1.0 Ni
Rb6 1.0000000000 0.6469569713 0.6469569713 0.0000000000  Biso 1.0 Rb
Rb7 1.0000000000 0.3530430287 0.3530430287 0.0000000000  Biso 1.0 Rb
