# AFLOW.org Repositories
# F4Pb1   [BCT,BCT2,tI10] (STD_PRIM doi:10
data_F4Pb1
_pd_phase_name F4Pb1
_cell_length_a  5.1994535262
_cell_length_b  5.1994535262
_cell_length_c  5.1994535262
_cell_angle_alpha  130.2688965667
_cell_angle_beta  130.2688965667
_cell_angle_gamma  72.9772539575
_symmetry_space_group_name_H-M  'P1'
_symmetry_Int_Tables_Number  1
loop_
_symmetry_equiv_pos_site_id
_symmetry_equiv_pos_as_xyz
  1  x,y,z
loop_
 _atom_site_label
 _atom_site_occupancy
 _atom_site_fract_x
 _atom_site_fract_y
 _atom_site_fract_z
 _atom_site_thermal_displace_type
 _atom_site_B_iso_or_equiv
 _atom_site_type_symbol
F1 1.0000000000 0.5000000000 0.0000000000 0.5000000000  Biso 1.0 F
F2 1.0000000000 0.0000000000 0.5000000000 0.5000000000  Biso 1.0 F
F3 1.0000000000 0.7607134564 0.7607134564 0.0000000000  Biso 1.0 F
F4 1.0000000000 0.2392865436 0.2392865436 0.0000000000  Biso 1.0 F
Pb5 1.0000000000 0.0000000000 0.0000000000 0.0000000000  Biso 1.0 Pb
