# AFLOW.org Repositories
# F4Pb1Pd1   [BCT,BCT2,tI24] (STD_PRIM doi
data_F4Pb1Pd1
_pd_phase_name F4Pb1Pd1
_cell_length_a  6.9561376059
_cell_length_b  6.9561376059
_cell_length_c  6.9561376059
_cell_angle_alpha  129.3086472116
_cell_angle_beta  129.3086472116
_cell_angle_gamma  74.5144517581
_symmetry_space_group_name_H-M  'P1'
_symmetry_Int_Tables_Number  1
loop_
_symmetry_equiv_pos_site_id
_symmetry_equiv_pos_as_xyz
  1  x,y,z
loop_
 _atom_site_label
 _atom_site_occupancy
 _atom_site_fract_x
 _atom_site_fract_y
 _atom_site_fract_z
 _atom_site_thermal_displace_type
 _atom_site_B_iso_or_equiv
 _atom_site_type_symbol
F1 1.0000000000 0.2002408487 0.0416087394 0.5000000000  Biso 1.0 F
F2 1.0000000000 0.5416087394 0.7002408487 0.5000000000  Biso 1.0 F
F3 1.0000000000 0.7002408487 0.2002408487 0.1586321093  Biso 1.0 F
F4 1.0000000000 0.0416087394 0.5416087394 0.8413678907  Biso 1.0 F
F5 1.0000000000 0.9583912606 0.4583912606 0.1586321093  Biso 1.0 F
F6 1.0000000000 0.2997591513 0.7997591513 0.8413678907  Biso 1.0 F
F7 1.0000000000 0.4583912606 0.2997591513 0.5000000000  Biso 1.0 F
F8 1.0000000000 0.7997591513 0.9583912606 0.5000000000  Biso 1.0 F
Pb9 1.0000000000 0.7500000000 0.7500000000 0.0000000000  Biso 1.0 Pb
Pb10 1.0000000000 0.2500000000 0.2500000000 0.0000000000  Biso 1.0 Pb
Pd11 1.0000000000 0.5000000000 0.0000000000 0.5000000000  Biso 1.0 Pd
Pd12 1.0000000000 0.0000000000 0.5000000000 0.5000000000  Biso 1.0 Pd
