# AFLOW.org Repositories
# F6Li1V2   [TET,TET,tP18] (STD_PRIM doi:1
data_F6Li1V2
_pd_phase_name F6Li1V2
_cell_length_a  4.7711761054
_cell_length_b  4.7711761054
_cell_length_c  9.4472056098
_cell_angle_alpha  90.0000000000
_cell_angle_beta  90.0000000000
_cell_angle_gamma  90.0000000000
_symmetry_space_group_name_H-M  'P1'
_symmetry_Int_Tables_Number  1
loop_
_symmetry_equiv_pos_site_id
_symmetry_equiv_pos_as_xyz
  1  x,y,z
loop_
 _atom_site_label
 _atom_site_occupancy
 _atom_site_fract_x
 _atom_site_fract_y
 _atom_site_fract_z
 _atom_site_thermal_displace_type
 _atom_site_B_iso_or_equiv
 _atom_site_type_symbol
F1 1.0000000000 0.3063805412 0.3063805412 0.0000000000  Biso 1.0 F
F2 1.0000000000 0.6936194588 0.6936194588 0.0000000000  Biso 1.0 F
F3 1.0000000000 0.1936194588 0.8063805412 0.5000000000  Biso 1.0 F
F4 1.0000000000 0.8063805412 0.1936194588 0.5000000000  Biso 1.0 F
F5 1.0000000000 0.3007129562 0.3007129562 0.3308043503  Biso 1.0 F
F6 1.0000000000 0.6992870438 0.6992870438 0.3308043503  Biso 1.0 F
F7 1.0000000000 0.1992870438 0.8007129562 0.8308043503  Biso 1.0 F
F8 1.0000000000 0.8007129562 0.1992870438 0.8308043503  Biso 1.0 F
F9 1.0000000000 0.1992870438 0.8007129562 0.1691956497  Biso 1.0 F
F10 1.0000000000 0.8007129562 0.1992870438 0.1691956497  Biso 1.0 F
F11 1.0000000000 0.3007129562 0.3007129562 0.6691956497  Biso 1.0 F
F12 1.0000000000 0.6992870438 0.6992870438 0.6691956497  Biso 1.0 F
Li13 1.0000000000 0.0000000000 0.0000000000 0.0000000000  Biso 1.0 Li
Li14 1.0000000000 0.5000000000 0.5000000000 0.5000000000  Biso 1.0 Li
V15 1.0000000000 0.0000000000 0.0000000000 0.3325233734  Biso 1.0 V
V16 1.0000000000 0.5000000000 0.5000000000 0.8325233734  Biso 1.0 V
V17 1.0000000000 0.5000000000 0.5000000000 0.1674766266  Biso 1.0 V
V18 1.0000000000 0.0000000000 0.0000000000 0.6674766266  Biso 1.0 V
