# AFLOW.org Repositories
# F6Na1Sb1   [CUB,CUB,cP32] (STD_PRIM doi:
data_F6Na1Sb1
_pd_phase_name F6Na1Sb1
_cell_length_a  8.4814062120
_cell_length_b  8.4814062120
_cell_length_c  8.4814062120
_cell_angle_alpha  90.0000000000
_cell_angle_beta  90.0000000000
_cell_angle_gamma  90.0000000000
_symmetry_space_group_name_H-M  'P1'
_symmetry_Int_Tables_Number  1
loop_
_symmetry_equiv_pos_site_id
_symmetry_equiv_pos_as_xyz
  1  x,y,z
loop_
 _atom_site_label
 _atom_site_occupancy
 _atom_site_fract_x
 _atom_site_fract_y
 _atom_site_fract_z
 _atom_site_thermal_displace_type
 _atom_site_B_iso_or_equiv
 _atom_site_type_symbol
F1 1.0000000000 0.0024485778 0.9974870625 0.2259514202  Biso 1.0 F
F2 1.0000000000 0.4975514222 0.0025129375 0.7259514202  Biso 1.0 F
F3 1.0000000000 0.9975514222 0.4974870625 0.2740485798  Biso 1.0 F
F4 1.0000000000 0.5024485778 0.5025129375 0.7740485798  Biso 1.0 F
F5 1.0000000000 0.7740485798 0.0024485778 0.0025129375  Biso 1.0 F
F6 1.0000000000 0.2740485798 0.4975514222 0.9974870625  Biso 1.0 F
F7 1.0000000000 0.7259514202 0.9975514222 0.5025129375  Biso 1.0 F
F8 1.0000000000 0.2259514202 0.5024485778 0.4974870625  Biso 1.0 F
F9 1.0000000000 0.9974870625 0.7740485798 0.9975514222  Biso 1.0 F
F10 1.0000000000 0.0025129375 0.2740485798 0.5024485778  Biso 1.0 F
F11 1.0000000000 0.4974870625 0.7259514202 0.0024485778  Biso 1.0 F
F12 1.0000000000 0.5025129375 0.2259514202 0.4975514222  Biso 1.0 F
F13 1.0000000000 0.9975514222 0.0025129375 0.7740485798  Biso 1.0 F
F14 1.0000000000 0.5024485778 0.9974870625 0.2740485798  Biso 1.0 F
F15 1.0000000000 0.0024485778 0.5025129375 0.7259514202  Biso 1.0 F
F16 1.0000000000 0.4975514222 0.4974870625 0.2259514202  Biso 1.0 F
F17 1.0000000000 0.2259514202 0.9975514222 0.9974870625  Biso 1.0 F
F18 1.0000000000 0.7259514202 0.5024485778 0.0025129375  Biso 1.0 F
F19 1.0000000000 0.2740485798 0.0024485778 0.4974870625  Biso 1.0 F
F20 1.0000000000 0.7740485798 0.4975514222 0.5025129375  Biso 1.0 F
F21 1.0000000000 0.0025129375 0.2259514202 0.0024485778  Biso 1.0 F
F22 1.0000000000 0.9974870625 0.7259514202 0.4975514222  Biso 1.0 F
F23 1.0000000000 0.5025129375 0.2740485798 0.9975514222  Biso 1.0 F
F24 1.0000000000 0.4974870625 0.7740485798 0.5024485778  Biso 1.0 F
Na25 1.0000000000 0.5000000000 0.5000000000 0.5000000000  Biso 1.0 Na
Na26 1.0000000000 0.0000000000 0.5000000000 0.0000000000  Biso 1.0 Na
Na27 1.0000000000 0.5000000000 0.0000000000 0.0000000000  Biso 1.0 Na
Na28 1.0000000000 0.0000000000 0.0000000000 0.5000000000  Biso 1.0 Na
Sb29 1.0000000000 0.0000000000 0.0000000000 0.0000000000  Biso 1.0 Sb
Sb30 1.0000000000 0.5000000000 0.0000000000 0.5000000000  Biso 1.0 Sb
Sb31 1.0000000000 0.0000000000 0.5000000000 0.5000000000  Biso 1.0 Sb
Sb32 1.0000000000 0.5000000000 0.5000000000 0.0000000000  Biso 1.0 Sb
