# AFLOW.org Repositories
# Fe1Hf1P1   [ORC,ORC,oP12] (STD_PRIM doi:
data_Fe1Hf1P1
_pd_phase_name Fe1Hf1P1
_cell_length_a  3.5878237146
_cell_length_b  6.3954901879
_cell_length_c  7.9101442800
_cell_angle_alpha  90.0000000000
_cell_angle_beta  90.0000000000
_cell_angle_gamma  90.0000000000
_symmetry_space_group_name_H-M  'P1'
_symmetry_Int_Tables_Number  1
loop_
_symmetry_equiv_pos_site_id
_symmetry_equiv_pos_as_xyz
  1  x,y,z
loop_
 _atom_site_label
 _atom_site_occupancy
 _atom_site_fract_x
 _atom_site_fract_y
 _atom_site_fract_z
 _atom_site_thermal_displace_type
 _atom_site_B_iso_or_equiv
 _atom_site_type_symbol
Fe1 1.0000000000 0.2500000000 0.1280911741 0.4472731741  Biso 1.0 Fe
Fe2 1.0000000000 0.7500000000 0.3719088259 0.9472731741  Biso 1.0 Fe
Fe3 1.0000000000 0.7500000000 0.8719088259 0.5527268259  Biso 1.0 Fe
Fe4 1.0000000000 0.2500000000 0.6280911741 0.0527268259  Biso 1.0 Fe
Hf5 1.0000000000 0.2500000000 0.0530387926 0.8360734925  Biso 1.0 Hf
Hf6 1.0000000000 0.7500000000 0.4469612074 0.3360734925  Biso 1.0 Hf
Hf7 1.0000000000 0.7500000000 0.9469612074 0.1639265075  Biso 1.0 Hf
Hf8 1.0000000000 0.2500000000 0.5530387926 0.6639265075  Biso 1.0 Hf
P9 1.0000000000 0.2500000000 0.7531640144 0.3569920007  Biso 1.0 P
P10 1.0000000000 0.7500000000 0.7468359856 0.8569920007  Biso 1.0 P
P11 1.0000000000 0.7500000000 0.2468359856 0.6430079993  Biso 1.0 P
P12 1.0000000000 0.2500000000 0.2531640144 0.1430079993  Biso 1.0 P
