# AFLOW.org Repositories
# Fe1Si1Zr1   [ORC,ORC,oP12] (STD_PRIM doi
data_Fe1Si1Zr1
_pd_phase_name Fe1Si1Zr1
_cell_length_a  4.0473400454
_cell_length_b  6.5227067345
_cell_length_c  6.7759494652
_cell_angle_alpha  90.0000000000
_cell_angle_beta  90.0000000000
_cell_angle_gamma  90.0000000000
_symmetry_space_group_name_H-M  'P1'
_symmetry_Int_Tables_Number  1
loop_
_symmetry_equiv_pos_site_id
_symmetry_equiv_pos_as_xyz
  1  x,y,z
loop_
 _atom_site_label
 _atom_site_occupancy
 _atom_site_fract_x
 _atom_site_fract_y
 _atom_site_fract_z
 _atom_site_thermal_displace_type
 _atom_site_B_iso_or_equiv
 _atom_site_type_symbol
Fe1 1.0000000000 0.2500000000 0.1518599147 0.9416779043  Biso 1.0 Fe
Fe2 1.0000000000 0.7500000000 0.3481400853 0.4416779043  Biso 1.0 Fe
Fe3 1.0000000000 0.7500000000 0.8481400853 0.0583220957  Biso 1.0 Fe
Fe4 1.0000000000 0.2500000000 0.6518599147 0.5583220957  Biso 1.0 Fe
Si5 1.0000000000 0.2500000000 0.2929973039 0.6074755794  Biso 1.0 Si
Si6 1.0000000000 0.7500000000 0.2070026961 0.1074755794  Biso 1.0 Si
Si7 1.0000000000 0.7500000000 0.7070026961 0.3925244206  Biso 1.0 Si
Si8 1.0000000000 0.2500000000 0.7929973039 0.8925244206  Biso 1.0 Si
Zr9 1.0000000000 0.2500000000 0.9809232798 0.3043382057  Biso 1.0 Zr
Zr10 1.0000000000 0.7500000000 0.5190767202 0.8043382057  Biso 1.0 Zr
Zr11 1.0000000000 0.7500000000 0.0190767202 0.6956617943  Biso 1.0 Zr
Zr12 1.0000000000 0.2500000000 0.4809232798 0.1956617943  Biso 1.0 Zr
