# AFLOW.org Repositories
# Fe1Si1   [CUB,CUB,cP8] (STD_PRIM doi:10.
data_Fe1Si1
_pd_phase_name Fe1Si1
_cell_length_a  4.4176732395
_cell_length_b  4.4176732395
_cell_length_c  4.4176732395
_cell_angle_alpha  90.0000000000
_cell_angle_beta  90.0000000000
_cell_angle_gamma  90.0000000000
_symmetry_space_group_name_H-M  'P1'
_symmetry_Int_Tables_Number  1
loop_
_symmetry_equiv_pos_site_id
_symmetry_equiv_pos_as_xyz
  1  x,y,z
loop_
 _atom_site_label
 _atom_site_occupancy
 _atom_site_fract_x
 _atom_site_fract_y
 _atom_site_fract_z
 _atom_site_thermal_displace_type
 _atom_site_B_iso_or_equiv
 _atom_site_type_symbol
Fe1 1.0000000000 0.8636063720 0.8636063720 0.1363936280  Biso 1.0 Fe
Fe2 1.0000000000 0.6363936280 0.1363936280 0.6363936280  Biso 1.0 Fe
Fe3 1.0000000000 0.1363936280 0.3636063720 0.3636063720  Biso 1.0 Fe
Fe4 1.0000000000 0.3636063720 0.6363936280 0.8636063720  Biso 1.0 Fe
Si5 1.0000000000 0.1588734390 0.1588734390 0.8411265610  Biso 1.0 Si
Si6 1.0000000000 0.3411265610 0.8411265610 0.3411265610  Biso 1.0 Si
Si7 1.0000000000 0.8411265610 0.6588734390 0.6588734390  Biso 1.0 Si
Si8 1.0000000000 0.6588734390 0.3411265610 0.1588734390  Biso 1.0 Si
