# AFLOW.org Repositories
# Fe1Te2Zr6   [HEX,HEX,hP9] (STD_PRIM doi:
data_Fe1Te2Zr6
_pd_phase_name Fe1Te2Zr6
_cell_length_a  7.8711550980
_cell_length_b  7.8711550980
_cell_length_c  3.5824011540
_cell_angle_alpha  90.0000000000
_cell_angle_beta  90.0000000000
_cell_angle_gamma  120.0000000000
_symmetry_space_group_name_H-M  'P1'
_symmetry_Int_Tables_Number  1
loop_
_symmetry_equiv_pos_site_id
_symmetry_equiv_pos_as_xyz
  1  x,y,z
loop_
 _atom_site_label
 _atom_site_occupancy
 _atom_site_fract_x
 _atom_site_fract_y
 _atom_site_fract_z
 _atom_site_thermal_displace_type
 _atom_site_B_iso_or_equiv
 _atom_site_type_symbol
Fe1 1.0000000000 0.0000000000 0.0000000000 0.0000000000  Biso 1.0 Fe
Te2 1.0000000000 0.3333303172 0.6666687107 0.5000000000  Biso 1.0 Te
Te3 1.0000000000 0.6666687107 0.3333303172 0.5000000000  Biso 1.0 Te
Zr4 1.0000000000 0.5958367519 0.0000000000 0.0000000000  Biso 1.0 Zr
Zr5 1.0000000000 0.0000000000 0.5958367519 0.0000000000  Biso 1.0 Zr
Zr6 1.0000000000 0.4041686660 0.4041686660 0.0000000000  Biso 1.0 Zr
Zr7 1.0000000000 0.2409107336 0.0000000000 0.5000000000  Biso 1.0 Zr
Zr8 1.0000000000 0.0000000000 0.2409107336 0.5000000000  Biso 1.0 Zr
Zr9 1.0000000000 0.7591054794 0.7591054794 0.5000000000  Biso 1.0 Zr
