# AFLOW.org Repositories
# Fe2Re3   [CUB,CUB,cP20] (STD_PRIM doi:10
data_Fe2Re3
_pd_phase_name Fe2Re3
_cell_length_a  6.4066315892
_cell_length_b  6.4066315892
_cell_length_c  6.4066315892
_cell_angle_alpha  90.0000000000
_cell_angle_beta  90.0000000000
_cell_angle_gamma  90.0000000000
_symmetry_space_group_name_H-M  'P1'
_symmetry_Int_Tables_Number  1
loop_
_symmetry_equiv_pos_site_id
_symmetry_equiv_pos_as_xyz
  1  x,y,z
loop_
 _atom_site_label
 _atom_site_occupancy
 _atom_site_fract_x
 _atom_site_fract_y
 _atom_site_fract_z
 _atom_site_thermal_displace_type
 _atom_site_B_iso_or_equiv
 _atom_site_type_symbol
Fe1 1.0000000000 0.9418197572 0.9418197572 0.0581802428  Biso 1.0 Fe
Fe2 1.0000000000 0.5581802428 0.0581802428 0.5581802428  Biso 1.0 Fe
Fe3 1.0000000000 0.0581802428 0.4418197572 0.4418197572  Biso 1.0 Fe
Fe4 1.0000000000 0.4418197572 0.5581802428 0.9418197572  Biso 1.0 Fe
Fe5 1.0000000000 0.1918197572 0.6918197572 0.1918197572  Biso 1.0 Fe
Fe6 1.0000000000 0.3081802428 0.3081802428 0.6918197572  Biso 1.0 Fe
Fe7 1.0000000000 0.6918197572 0.8081802428 0.8081802428  Biso 1.0 Fe
Fe8 1.0000000000 0.8081802428 0.1918197572 0.3081802428  Biso 1.0 Fe
Re9 1.0000000000 0.8750000000 0.8022439354 0.4477560646  Biso 1.0 Re
Re10 1.0000000000 0.6250000000 0.1977560646 0.9477560646  Biso 1.0 Re
Re11 1.0000000000 0.1250000000 0.3022439354 0.0522439354  Biso 1.0 Re
Re12 1.0000000000 0.3750000000 0.6977560646 0.5522439354  Biso 1.0 Re
Re13 1.0000000000 0.5522439354 0.8750000000 0.1977560646  Biso 1.0 Re
Re14 1.0000000000 0.0522439354 0.6250000000 0.8022439354  Biso 1.0 Re
Re15 1.0000000000 0.9477560646 0.1250000000 0.6977560646  Biso 1.0 Re
Re16 1.0000000000 0.4477560646 0.3750000000 0.3022439354  Biso 1.0 Re
Re17 1.0000000000 0.8022439354 0.5522439354 0.1250000000  Biso 1.0 Re
Re18 1.0000000000 0.1977560646 0.0522439354 0.3750000000  Biso 1.0 Re
Re19 1.0000000000 0.3022439354 0.9477560646 0.8750000000  Biso 1.0 Re
Re20 1.0000000000 0.6977560646 0.4477560646 0.6250000000  Biso 1.0 Re
