# AFLOW.org Repositories
# Fe2S6Ta9   [HEX,HEX,hP17] (STD_PRIM doi:
data_Fe2S6Ta9
_pd_phase_name Fe2S6Ta9
_cell_length_a  10.4070348186
_cell_length_b  10.4070348186
_cell_length_c  3.3848812219
_cell_angle_alpha  90.0000000000
_cell_angle_beta  90.0000000000
_cell_angle_gamma  120.0000000000
_symmetry_space_group_name_H-M  'P1'
_symmetry_Int_Tables_Number  1
loop_
_symmetry_equiv_pos_site_id
_symmetry_equiv_pos_as_xyz
  1  x,y,z
loop_
 _atom_site_label
 _atom_site_occupancy
 _atom_site_fract_x
 _atom_site_fract_y
 _atom_site_fract_z
 _atom_site_thermal_displace_type
 _atom_site_B_iso_or_equiv
 _atom_site_type_symbol
Fe1 1.0000000000 0.3333401462 0.6666737078 0.0000000000  Biso 1.0 Fe
Fe2 1.0000000000 0.6666737078 0.3333401462 0.0000000000  Biso 1.0 Fe
S3 1.0000000000 0.2751503507 0.0000000000 0.5000000000  Biso 1.0 S
S4 1.0000000000 0.0000000000 0.2751503507 0.5000000000  Biso 1.0 S
S5 1.0000000000 0.7248456690 0.7248456690 0.5000000000  Biso 1.0 S
S6 1.0000000000 0.7087253668 0.0000000000 0.0000000000  Biso 1.0 S
S7 1.0000000000 0.0000000000 0.7087253668 0.0000000000  Biso 1.0 S
S8 1.0000000000 0.2912833726 0.2912833726 0.0000000000  Biso 1.0 S
Ta9 1.0000000000 0.4575896951 0.0000000000 0.0000000000  Biso 1.0 Ta
Ta10 1.0000000000 0.0000000000 0.4575896951 0.0000000000  Biso 1.0 Ta
Ta11 1.0000000000 0.5424076882 0.5424076882 0.0000000000  Biso 1.0 Ta
Ta12 1.0000000000 0.1931842599 0.7360098713 0.5000000000  Biso 1.0 Ta
Ta13 1.0000000000 0.2640017228 0.4571999698 0.5000000000  Biso 1.0 Ta
Ta14 1.0000000000 0.5428016925 0.8067943412 0.5000000000  Biso 1.0 Ta
Ta15 1.0000000000 0.7360098713 0.1931842599 0.5000000000  Biso 1.0 Ta
Ta16 1.0000000000 0.4571999698 0.2640017228 0.5000000000  Biso 1.0 Ta
Ta17 1.0000000000 0.8067943412 0.5428016925 0.5000000000  Biso 1.0 Ta
