# AFLOW.org Repositories
# Fe3N1   [HEX,HEX,hP8] (STD_PRIM doi:10.1
data_Fe3N1
_pd_phase_name Fe3N1
_cell_length_a  5.0746608421
_cell_length_b  5.0746608421
_cell_length_c  4.4542151057
_cell_angle_alpha  90.0000000000
_cell_angle_beta  90.0000000000
_cell_angle_gamma  120.5870590505
_symmetry_space_group_name_H-M  'P1'
_symmetry_Int_Tables_Number  1
loop_
_symmetry_equiv_pos_site_id
_symmetry_equiv_pos_as_xyz
  1  x,y,z
loop_
 _atom_site_label
 _atom_site_occupancy
 _atom_site_fract_x
 _atom_site_fract_y
 _atom_site_fract_z
 _atom_site_thermal_displace_type
 _atom_site_B_iso_or_equiv
 _atom_site_type_symbol
Fe1 1.0000000000 0.9799761848 0.3526187559 0.2522847427  Biso 1.0 Fe
Fe2 1.0000000000 0.7416424337 0.7416424337 0.2500000000  Biso 1.0 Fe
Fe3 1.0000000000 0.3526187559 0.9799761848 0.2477152573  Biso 1.0 Fe
Fe4 1.0000000000 0.6473812441 0.0200238152 0.7477152573  Biso 1.0 Fe
Fe5 1.0000000000 0.2583575663 0.2583575663 0.7500000000  Biso 1.0 Fe
Fe6 1.0000000000 0.0200238152 0.6473812441 0.7522847427  Biso 1.0 Fe
N7 1.0000000000 0.3572819299 0.6427180701 0.0000000000  Biso 1.0 N
N8 1.0000000000 0.6427180701 0.3572819299 0.5000000000  Biso 1.0 N
