# AFLOW.org Repositories
# Ga1Gd3O6   [ORCC,ORCC,oS40] (STD_PRIM do
data_Ga1Gd3O6
_pd_phase_name Ga1Gd3O6
_cell_length_a  7.2617291938
_cell_length_b  7.2617291938
_cell_length_c  5.5183469142
_cell_angle_alpha  90.0000000000
_cell_angle_beta  90.0000000000
_cell_angle_gamma  102.8420656038
_symmetry_space_group_name_H-M  'P1'
_symmetry_Int_Tables_Number  1
loop_
_symmetry_equiv_pos_site_id
_symmetry_equiv_pos_as_xyz
  1  x,y,z
loop_
 _atom_site_label
 _atom_site_occupancy
 _atom_site_fract_x
 _atom_site_fract_y
 _atom_site_fract_z
 _atom_site_thermal_displace_type
 _atom_site_B_iso_or_equiv
 _atom_site_type_symbol
Ga1 1.0000000000 0.8072805289 0.1927194711 0.0000000000  Biso 1.0 Ga
Ga2 1.0000000000 0.1927240107 0.8072759893 0.5009310553  Biso 1.0 Ga
Gd3 1.0000000000 0.7008447810 0.9122844841 0.5334980163  Biso 1.0 Gd
Gd4 1.0000000000 0.2991539658 0.0877146634 0.0335182311  Biso 1.0 Gd
Gd5 1.0000000000 0.9122853366 0.7008460342 0.0335182311  Biso 1.0 Gd
Gd6 1.0000000000 0.0877155159 0.2991552190 0.5334980163  Biso 1.0 Gd
Gd7 1.0000000000 0.6029510108 0.3970489892 0.5781299308  Biso 1.0 Gd
Gd8 1.0000000000 0.3970444566 0.6029555434 0.0781312891  Biso 1.0 Gd
O9 1.0000000000 0.5809133202 0.1060582110 0.8276100622  Biso 1.0 O
O10 1.0000000000 0.4190797672 0.8939348183 0.3276529491  Biso 1.0 O
O11 1.0000000000 0.1060651817 0.5809202328 0.3276529491  Biso 1.0 O
O12 1.0000000000 0.8939417890 0.4190866798 0.8276100622  Biso 1.0 O
O13 1.0000000000 0.6446524014 0.6749490292 0.8042560543  Biso 1.0 O
O14 1.0000000000 0.3553478809 0.3250588067 0.3042570529  Biso 1.0 O
O15 1.0000000000 0.6749411933 0.6446521191 0.3042570529  Biso 1.0 O
O16 1.0000000000 0.3250509708 0.3553475986 0.8042560543  Biso 1.0 O
O17 1.0000000000 0.9594123082 0.0405876918 0.8631770853  Biso 1.0 O
O18 1.0000000000 0.0405905462 0.9594094538 0.3631903947  Biso 1.0 O
O19 1.0000000000 0.7849355172 0.2150644828 0.3340404516  Biso 1.0 O
O20 1.0000000000 0.2150695175 0.7849304825 0.8341230527  Biso 1.0 O
