# AFLOW.org Repositories
# Ga1Ho1Pt1   [ORC,ORC,oP12] (STD_PRIM doi
data_Ga1Ho1Pt1
_pd_phase_name Ga1Ho1Pt1
_cell_length_a  4.4335943244
_cell_length_b  6.8648419928
_cell_length_c  7.6220301924
_cell_angle_alpha  90.0000000000
_cell_angle_beta  90.0000000000
_cell_angle_gamma  90.0000000000
_symmetry_space_group_name_H-M  'P1'
_symmetry_Int_Tables_Number  1
loop_
_symmetry_equiv_pos_site_id
_symmetry_equiv_pos_as_xyz
  1  x,y,z
loop_
 _atom_site_label
 _atom_site_occupancy
 _atom_site_fract_x
 _atom_site_fract_y
 _atom_site_fract_z
 _atom_site_thermal_displace_type
 _atom_site_B_iso_or_equiv
 _atom_site_type_symbol
Ga1 1.0000000000 0.2500000000 0.1758344525 0.4219265112  Biso 1.0 Ga
Ga2 1.0000000000 0.7500000000 0.3241655475 0.9219265112  Biso 1.0 Ga
Ga3 1.0000000000 0.7500000000 0.8241655475 0.5780734888  Biso 1.0 Ga
Ga4 1.0000000000 0.2500000000 0.6758344525 0.0780734888  Biso 1.0 Ga
Ho5 1.0000000000 0.2500000000 0.0152735287 0.8009901195  Biso 1.0 Ho
Ho6 1.0000000000 0.7500000000 0.4847264713 0.3009901195  Biso 1.0 Ho
Ho7 1.0000000000 0.7500000000 0.9847264713 0.1990098805  Biso 1.0 Ho
Ho8 1.0000000000 0.2500000000 0.5152735287 0.6990098805  Biso 1.0 Ho
Pt9 1.0000000000 0.2500000000 0.7786576837 0.4057624997  Biso 1.0 Pt
Pt10 1.0000000000 0.7500000000 0.7213423163 0.9057624997  Biso 1.0 Pt
Pt11 1.0000000000 0.7500000000 0.2213423163 0.5942375003  Biso 1.0 Pt
Pt12 1.0000000000 0.2500000000 0.2786576837 0.0942375003  Biso 1.0 Pt
