# AFLOW.org Repositories
# Ga1Hf1Pd1                               
data_Ga1Hf1Pd1
_pd_phase_name Ga1Hf1Pd1
_cell_length_a  7.1994808122
_cell_length_b  7.1994808122
_cell_length_c  6.9271318308
_cell_angle_alpha  90.0000000000
_cell_angle_beta  90.0000000000
_cell_angle_gamma  120.0000000000
_symmetry_space_group_name_H-M  'P1'
_symmetry_Int_Tables_Number  1
loop_
_symmetry_equiv_pos_site_id
_symmetry_equiv_pos_as_xyz
  1  x,y,z
loop_
 _atom_site_label
 _atom_site_occupancy
 _atom_site_fract_x
 _atom_site_fract_y
 _atom_site_fract_z
 _atom_site_thermal_displace_type
 _atom_site_B_iso_or_equiv
 _atom_site_type_symbol
Ga1 1.0000000000 0.0000000000 0.7317721313 0.0000000000  Biso 1.0 Ga
Ga2 1.0000000000 0.2682278687 0.2682278687 0.0000000000  Biso 1.0 Ga
Ga3 1.0000000000 0.7317685861 0.0000000000 0.0000000000  Biso 1.0 Ga
Ga4 1.0000000000 0.0000000000 0.7317721313 0.4999994787  Biso 1.0 Ga
Ga5 1.0000000000 0.2682278687 0.2682278687 0.5000005213  Biso 1.0 Ga
Ga6 1.0000000000 0.7317685861 0.0000000000 0.5000000000  Biso 1.0 Ga
Hf7 1.0000000000 0.3885952800 0.9787667882 0.2500000000  Biso 1.0 Hf
Hf8 1.0000000000 0.0212402458 0.4098305540 0.2500000000  Biso 1.0 Hf
Hf9 1.0000000000 0.5901686610 0.6114126464 0.2500000000  Biso 1.0 Hf
Hf10 1.0000000000 0.4098284918 0.0212332118 0.7500000000  Biso 1.0 Hf
Hf11 1.0000000000 0.6114096918 0.5901694460 0.7500000000  Biso 1.0 Hf
Hf12 1.0000000000 0.9787560147 0.3885873536 0.7500000000  Biso 1.0 Hf
Pd13 1.0000000000 0.6666709582 0.3333415593 0.0303900233  Biso 1.0 Pd
Pd14 1.0000000000 0.6666709582 0.3333415593 0.4696099767  Biso 1.0 Pd
Pd15 1.0000000000 0.3333293990 0.6666584407 0.9696099767  Biso 1.0 Pd
Pd16 1.0000000000 0.3333293990 0.6666584407 0.5303900233  Biso 1.0 Pd
Pd17 1.0000000000 0.0000000000 0.0000000000 0.2500000000  Biso 1.0 Pd
Pd18 1.0000000000 0.0000000000 0.0000000000 0.7500000000  Biso 1.0 Pd
