# AFLOW.org Repositories
# Ga1Hf1Pt1                               
data_Ga1Hf1Pt1
_pd_phase_name Ga1Hf1Pt1
_cell_length_a  7.1383518674
_cell_length_b  7.1383518674
_cell_length_c  7.0864946588
_cell_angle_alpha  90.0000000000
_cell_angle_beta  90.0000000000
_cell_angle_gamma  120.0000000000
_symmetry_space_group_name_H-M  'P1'
_symmetry_Int_Tables_Number  1
loop_
_symmetry_equiv_pos_site_id
_symmetry_equiv_pos_as_xyz
  1  x,y,z
loop_
 _atom_site_label
 _atom_site_occupancy
 _atom_site_fract_x
 _atom_site_fract_y
 _atom_site_fract_z
 _atom_site_thermal_displace_type
 _atom_site_B_iso_or_equiv
 _atom_site_type_symbol
Ga1 1.0000000000 0.2653799224 0.0000000000 0.0000000000  Biso 1.0 Ga
Ga2 1.0000000000 0.0000000000 0.2653799224 0.0000000000  Biso 1.0 Ga
Ga3 1.0000000000 0.7346289084 0.7346289084 0.0000000000  Biso 1.0 Ga
Ga4 1.0000000000 0.2653799224 0.0000000000 0.5000114644  Biso 1.0 Ga
Ga5 1.0000000000 0.0000000000 0.2653799224 0.4999885356  Biso 1.0 Ga
Ga6 1.0000000000 0.7346289084 0.7346289084 0.5000000000  Biso 1.0 Ga
Hf7 1.0000000000 0.3966444545 0.3962404483 0.2500000000  Biso 1.0 Hf
Hf8 1.0000000000 0.6037468383 0.0000000000 0.2500000000  Biso 1.0 Hf
Hf9 1.0000000000 0.0000000000 0.6033336849 0.2500000000  Biso 1.0 Hf
Hf10 1.0000000000 0.3962404483 0.3966444545 0.7500000000  Biso 1.0 Hf
Hf11 1.0000000000 0.0000000000 0.6037468383 0.7500000000  Biso 1.0 Hf
Hf12 1.0000000000 0.6033336849 0.0000000000 0.7500000000  Biso 1.0 Hf
Pt13 1.0000000000 0.3333408443 0.6666725456 0.0000000000  Biso 1.0 Pt
Pt14 1.0000000000 0.3333408443 0.6666725456 0.4994405069  Biso 1.0 Pt
Pt15 1.0000000000 0.6666725456 0.3333408443 0.0000000000  Biso 1.0 Pt
Pt16 1.0000000000 0.6666725456 0.3333408443 0.5005594931  Biso 1.0 Pt
Pt17 1.0000000000 0.0000000000 0.0000000000 0.2500000000  Biso 1.0 Pt
Pt18 1.0000000000 0.0000000000 0.0000000000 0.7500000000  Biso 1.0 Pt
