# AFLOW.org Repositories
# Ga1In1O3   [HEX,HEX,hP10] (STD_PRIM doi:
data_Ga1In1O3
_pd_phase_name Ga1In1O3
_cell_length_a  3.3492489242
_cell_length_b  3.3492489242
_cell_length_c  12.1484137981
_cell_angle_alpha  90.0000000000
_cell_angle_beta  90.0000000000
_cell_angle_gamma  120.0000000000
_symmetry_space_group_name_H-M  'P1'
_symmetry_Int_Tables_Number  1
loop_
_symmetry_equiv_pos_site_id
_symmetry_equiv_pos_as_xyz
  1  x,y,z
loop_
 _atom_site_label
 _atom_site_occupancy
 _atom_site_fract_x
 _atom_site_fract_y
 _atom_site_fract_z
 _atom_site_thermal_displace_type
 _atom_site_B_iso_or_equiv
 _atom_site_type_symbol
Ga1 1.0000000000 0.6666831359 0.3333662717 0.2500000000  Biso 1.0 Ga
Ga2 1.0000000000 0.3333168641 0.6666337283 0.7500000000  Biso 1.0 Ga
In3 1.0000000000 0.0000000000 0.0000000000 0.0000000000  Biso 1.0 In
In4 1.0000000000 0.0000000000 0.0000000000 0.5000000000  Biso 1.0 In
O5 1.0000000000 0.0000000000 0.0000000000 0.2500000000  Biso 1.0 O
O6 1.0000000000 0.0000000000 0.0000000000 0.7500000000  Biso 1.0 O
O7 1.0000000000 0.6666932475 0.3333864950 0.0869788523  Biso 1.0 O
O8 1.0000000000 0.3333067525 0.6666135050 0.5869788523  Biso 1.0 O
O9 1.0000000000 0.3333067525 0.6666135050 0.9130211477  Biso 1.0 O
O10 1.0000000000 0.6666932475 0.3333864950 0.4130211477  Biso 1.0 O
