# AFLOW.org Repositories
# Ga1In1Te2   [BCT,BCT1,tI16] (STD_PRIM do
data_Ga1In1Te2
_pd_phase_name Ga1In1Te2
_cell_length_a  6.9176925544
_cell_length_b  6.9176925544
_cell_length_c  6.9176925544
_cell_angle_alpha  104.0619323514
_cell_angle_beta  104.0619323514
_cell_angle_gamma  120.9345686774
_symmetry_space_group_name_H-M  'P1'
_symmetry_Int_Tables_Number  1
loop_
_symmetry_equiv_pos_site_id
_symmetry_equiv_pos_as_xyz
  1  x,y,z
loop_
 _atom_site_label
 _atom_site_occupancy
 _atom_site_fract_x
 _atom_site_fract_y
 _atom_site_fract_z
 _atom_site_thermal_displace_type
 _atom_site_B_iso_or_equiv
 _atom_site_type_symbol
Ga1 1.0000000000 0.2500000000 0.7500000000 0.5000000000  Biso 1.0 Ga
Ga2 1.0000000000 0.7500000000 0.2500000000 0.5000000000  Biso 1.0 Ga
In3 1.0000000000 0.7500000000 0.7500000000 0.0000000000  Biso 1.0 In
In4 1.0000000000 0.2500000000 0.2500000000 0.0000000000  Biso 1.0 In
Te5 1.0000000000 0.6729594714 0.8270405286 0.5000000000  Biso 1.0 Te
Te6 1.0000000000 0.3270405286 0.1729594714 0.5000000000  Biso 1.0 Te
Te7 1.0000000000 0.1729594714 0.6729594714 0.8459189427  Biso 1.0 Te
Te8 1.0000000000 0.8270405286 0.3270405286 0.1540810573  Biso 1.0 Te
