# AFLOW.org Repositories
# Ga1Li1S2   [ORC,ORC,oP16] (STD_PRIM doi:
data_Ga1Li1S2
_pd_phase_name Ga1Li1S2
_cell_length_a  6.2880233705
_cell_length_b  6.5778258588
_cell_length_c  7.9119400120
_cell_angle_alpha  90.0000000000
_cell_angle_beta  90.0000000000
_cell_angle_gamma  90.0000000000
_symmetry_space_group_name_H-M  'P1'
_symmetry_Int_Tables_Number  1
loop_
_symmetry_equiv_pos_site_id
_symmetry_equiv_pos_as_xyz
  1  x,y,z
loop_
 _atom_site_label
 _atom_site_occupancy
 _atom_site_fract_x
 _atom_site_fract_y
 _atom_site_fract_z
 _atom_site_thermal_displace_type
 _atom_site_B_iso_or_equiv
 _atom_site_type_symbol
Ga1 1.0000000000 0.3793269707 0.0746885500 0.8741640198  Biso 1.0 Ga
Ga2 1.0000000000 0.8793269707 0.9253114500 0.1258359802  Biso 1.0 Ga
Ga3 1.0000000000 0.3793269707 0.5746885500 0.6258359802  Biso 1.0 Ga
Ga4 1.0000000000 0.8793269707 0.4253114500 0.3741640198  Biso 1.0 Ga
Li5 1.0000000000 0.8811536588 0.4144324561 0.8769654733  Biso 1.0 Li
Li6 1.0000000000 0.3811536588 0.5855675439 0.1230345267  Biso 1.0 Li
Li7 1.0000000000 0.8811536588 0.9144324561 0.6230345267  Biso 1.0 Li
Li8 1.0000000000 0.3811536588 0.0855675439 0.3769654733  Biso 1.0 Li
S9 1.0000000000 0.9932215611 0.0924179558 0.3649777743  Biso 1.0 S
S10 1.0000000000 0.4932215611 0.9075820442 0.6350222257  Biso 1.0 S
S11 1.0000000000 0.9932215611 0.5924179558 0.1350222257  Biso 1.0 S
S12 1.0000000000 0.4932215611 0.4075820442 0.8649777743  Biso 1.0 S
S13 1.0000000000 0.0123978094 0.0671977274 0.8835770493  Biso 1.0 S
S14 1.0000000000 0.5123978094 0.9328022726 0.1164229507  Biso 1.0 S
S15 1.0000000000 0.0123978094 0.5671977274 0.6164229507  Biso 1.0 S
S16 1.0000000000 0.5123978094 0.4328022726 0.3835770493  Biso 1.0 S
