# AFLOW.org Repositories
# Ga1La1Pt1   [ORC,ORC,oP12] (STD_PRIM doi
data_Ga1La1Pt1
_pd_phase_name Ga1La1Pt1
_cell_length_a  4.5549459129
_cell_length_b  7.3102142517
_cell_length_c  7.9393431438
_cell_angle_alpha  90.0000000000
_cell_angle_beta  90.0000000000
_cell_angle_gamma  90.0000000000
_symmetry_space_group_name_H-M  'P1'
_symmetry_Int_Tables_Number  1
loop_
_symmetry_equiv_pos_site_id
_symmetry_equiv_pos_as_xyz
  1  x,y,z
loop_
 _atom_site_label
 _atom_site_occupancy
 _atom_site_fract_x
 _atom_site_fract_y
 _atom_site_fract_z
 _atom_site_thermal_displace_type
 _atom_site_B_iso_or_equiv
 _atom_site_type_symbol
Ga1 1.0000000000 0.2500000000 0.1582516225 0.0722088972  Biso 1.0 Ga
Ga2 1.0000000000 0.7500000000 0.3417483775 0.5722088972  Biso 1.0 Ga
Ga3 1.0000000000 0.7500000000 0.8417483775 0.9277911028  Biso 1.0 Ga
Ga4 1.0000000000 0.2500000000 0.6582516225 0.4277911028  Biso 1.0 Ga
La5 1.0000000000 0.2500000000 0.0263055284 0.6910131052  Biso 1.0 La
La6 1.0000000000 0.7500000000 0.4736944716 0.1910131052  Biso 1.0 La
La7 1.0000000000 0.7500000000 0.9736944716 0.3089868948  Biso 1.0 La
La8 1.0000000000 0.2500000000 0.5263055284 0.8089868948  Biso 1.0 La
Pt9 1.0000000000 0.2500000000 0.2858795231 0.3963644296  Biso 1.0 Pt
Pt10 1.0000000000 0.7500000000 0.2141204769 0.8963644296  Biso 1.0 Pt
Pt11 1.0000000000 0.7500000000 0.7141204769 0.6036355704  Biso 1.0 Pt
Pt12 1.0000000000 0.2500000000 0.7858795231 0.1036355704  Biso 1.0 Pt
