# AFLOW.org Repositories
# Ga1Li1Se2   [ORC,ORC,oP16] (STD_PRIM doi
data_Ga1Li1Se2
_pd_phase_name Ga1Li1Se2
_cell_length_a  6.6402955606
_cell_length_b  6.9464128174
_cell_length_c  8.3475341096
_cell_angle_alpha  90.0000000000
_cell_angle_beta  90.0000000000
_cell_angle_gamma  90.0000000000
_symmetry_space_group_name_H-M  'P1'
_symmetry_Int_Tables_Number  1
loop_
_symmetry_equiv_pos_site_id
_symmetry_equiv_pos_as_xyz
  1  x,y,z
loop_
 _atom_site_label
 _atom_site_occupancy
 _atom_site_fract_x
 _atom_site_fract_y
 _atom_site_fract_z
 _atom_site_thermal_displace_type
 _atom_site_B_iso_or_equiv
 _atom_site_type_symbol
Ga1 1.0000000000 0.3771998173 0.0731631210 0.1262363515  Biso 1.0 Ga
Ga2 1.0000000000 0.8771998173 0.9268368790 0.8737636485  Biso 1.0 Ga
Ga3 1.0000000000 0.3771998173 0.5731631210 0.3737636485  Biso 1.0 Ga
Ga4 1.0000000000 0.8771998173 0.4268368790 0.6262363515  Biso 1.0 Ga
Li5 1.0000000000 0.8815568535 0.4108809430 0.1217134040  Biso 1.0 Li
Li6 1.0000000000 0.3815568535 0.5891190570 0.8782865960  Biso 1.0 Li
Li7 1.0000000000 0.8815568535 0.9108809430 0.3782865960  Biso 1.0 Li
Li8 1.0000000000 0.3815568535 0.0891190570 0.6217134040  Biso 1.0 Li
Se9 1.0000000000 0.4944945874 0.9070461733 0.3663406253  Biso 1.0 Se
Se10 1.0000000000 0.9944945874 0.0929538267 0.6336593747  Biso 1.0 Se
Se11 1.0000000000 0.4944945874 0.4070461733 0.1336593747  Biso 1.0 Se
Se12 1.0000000000 0.9944945874 0.5929538267 0.8663406253  Biso 1.0 Se
Se13 1.0000000000 0.0087487418 0.0660741047 0.1195982239  Biso 1.0 Se
Se14 1.0000000000 0.5087487418 0.9339258953 0.8804017761  Biso 1.0 Se
Se15 1.0000000000 0.0087487418 0.5660741047 0.3804017761  Biso 1.0 Se
Se16 1.0000000000 0.5087487418 0.4339258953 0.6195982239  Biso 1.0 Se
