# AFLOW.org Repositories
# Ga1Pt3   [BCT,BCT2,tI16] (STD_PRIM doi:1
data_Ga1Pt3
_pd_phase_name Ga1Pt3
_cell_length_a  5.5602024550
_cell_length_b  5.5602024550
_cell_length_c  5.5602024550
_cell_angle_alpha  120.4757313812
_cell_angle_beta  120.4757313812
_cell_angle_gamma  89.1779653498
_symmetry_space_group_name_H-M  'P1'
_symmetry_Int_Tables_Number  1
loop_
_symmetry_equiv_pos_site_id
_symmetry_equiv_pos_as_xyz
  1  x,y,z
loop_
 _atom_site_label
 _atom_site_occupancy
 _atom_site_fract_x
 _atom_site_fract_y
 _atom_site_fract_z
 _atom_site_thermal_displace_type
 _atom_site_B_iso_or_equiv
 _atom_site_type_symbol
Ga1 1.0000000000 0.7500000000 0.2500000000 0.5000000000  Biso 1.0 Ga
Ga2 1.0000000000 0.2500000000 0.7500000000 0.5000000000  Biso 1.0 Ga
Pt3 1.0000000000 0.2500000000 0.2500000000 0.0000000000  Biso 1.0 Pt
Pt4 1.0000000000 0.7500000000 0.7500000000 0.0000000000  Biso 1.0 Pt
Pt5 1.0000000000 0.7088708399 0.2088708399 0.9177416798  Biso 1.0 Pt
Pt6 1.0000000000 0.2911291601 0.7911291601 0.0822583202  Biso 1.0 Pt
Pt7 1.0000000000 0.2088708399 0.2911291601 0.5000000000  Biso 1.0 Pt
Pt8 1.0000000000 0.7911291601 0.7088708399 0.5000000000  Biso 1.0 Pt
