# AFLOW.org Repositories
# Ga1Pd1   [CUB,CUB,cP8] (STD_PRIM doi:10.
data_Ga1Pd1
_pd_phase_name Ga1Pd1
_cell_length_a  4.9420452262
_cell_length_b  4.9420452262
_cell_length_c  4.9420452262
_cell_angle_alpha  90.0000000000
_cell_angle_beta  90.0000000000
_cell_angle_gamma  90.0000000000
_symmetry_space_group_name_H-M  'P1'
_symmetry_Int_Tables_Number  1
loop_
_symmetry_equiv_pos_site_id
_symmetry_equiv_pos_as_xyz
  1  x,y,z
loop_
 _atom_site_label
 _atom_site_occupancy
 _atom_site_fract_x
 _atom_site_fract_y
 _atom_site_fract_z
 _atom_site_thermal_displace_type
 _atom_site_B_iso_or_equiv
 _atom_site_type_symbol
Ga1 1.0000000000 0.1571459284 0.1571459284 0.8428540716  Biso 1.0 Ga
Ga2 1.0000000000 0.3428540716 0.8428540716 0.3428540716  Biso 1.0 Ga
Ga3 1.0000000000 0.8428540716 0.6571459284 0.6571459284  Biso 1.0 Ga
Ga4 1.0000000000 0.6571459284 0.3428540716 0.1571459284  Biso 1.0 Ga
Pd5 1.0000000000 0.8576510845 0.8576510845 0.1423489155  Biso 1.0 Pd
Pd6 1.0000000000 0.6423489155 0.1423489155 0.6423489155  Biso 1.0 Pd
Pd7 1.0000000000 0.1423489155 0.3576510845 0.3576510845  Biso 1.0 Pd
Pd8 1.0000000000 0.3576510845 0.6423489155 0.8576510845  Biso 1.0 Pd
