# AFLOW.org Repositories
# Ga1Y1   [ORCC,ORCC,oS8] (STD_PRIM doi:10
data_Ga1Y1
_pd_phase_name Ga1Y1
_cell_length_a  5.8800673158
_cell_length_b  5.8800673158
_cell_length_c  4.0611847094
_cell_angle_alpha  90.0000000000
_cell_angle_beta  90.0000000000
_cell_angle_gamma  136.4772279557
_symmetry_space_group_name_H-M  'P1'
_symmetry_Int_Tables_Number  1
loop_
_symmetry_equiv_pos_site_id
_symmetry_equiv_pos_as_xyz
  1  x,y,z
loop_
 _atom_site_label
 _atom_site_occupancy
 _atom_site_fract_x
 _atom_site_fract_y
 _atom_site_fract_z
 _atom_site_thermal_displace_type
 _atom_site_B_iso_or_equiv
 _atom_site_type_symbol
Ga1 1.0000000000 0.5773745334 0.4226254666 0.2500000000  Biso 1.0 Ga
Ga2 1.0000000000 0.4226254666 0.5773745334 0.7500000000  Biso 1.0 Ga
Y3 1.0000000000 0.8612832168 0.1387167832 0.2500000000  Biso 1.0 Y
Y4 1.0000000000 0.1387167832 0.8612832168 0.7500000000  Biso 1.0 Y
