# AFLOW.org Repositories
# Ga2Mg1O4   [FCC,FCC,cF56] (STD_PRIM doi:
data_Ga2Mg1O4
_pd_phase_name Ga2Mg1O4
_cell_length_a  5.9548062804
_cell_length_b  5.9548062804
_cell_length_c  5.9548062804
_cell_angle_alpha  60.0000000000
_cell_angle_beta  60.0000000000
_cell_angle_gamma  60.0000000000
_symmetry_space_group_name_H-M  'P1'
_symmetry_Int_Tables_Number  1
loop_
_symmetry_equiv_pos_site_id
_symmetry_equiv_pos_as_xyz
  1  x,y,z
loop_
 _atom_site_label
 _atom_site_occupancy
 _atom_site_fract_x
 _atom_site_fract_y
 _atom_site_fract_z
 _atom_site_thermal_displace_type
 _atom_site_B_iso_or_equiv
 _atom_site_type_symbol
Ga1 1.0000000000 0.5000000000 0.5000000000 0.5000000000  Biso 1.0 Ga
Ga2 1.0000000000 0.5000000000 0.0000000000 0.0000000000  Biso 1.0 Ga
Ga3 1.0000000000 0.5000000000 0.0000000000 0.5000000000  Biso 1.0 Ga
Ga4 1.0000000000 0.0000000000 0.0000000000 0.5000000000  Biso 1.0 Ga
Mg5 1.0000000000 0.8750000000 0.3750000000 0.8750000000  Biso 1.0 Mg
Mg6 1.0000000000 0.1250000000 0.6250000000 0.1250000000  Biso 1.0 Mg
O7 1.0000000000 0.7387717006 0.7836848982 0.7387717006  Biso 1.0 O
O8 1.0000000000 0.7387717006 0.2387717006 0.2836848982  Biso 1.0 O
O9 1.0000000000 0.7387717006 0.2387717006 0.7387717006  Biso 1.0 O
O10 1.0000000000 0.2836848982 0.2387717006 0.7387717006  Biso 1.0 O
O11 1.0000000000 0.2612282994 0.7612282994 0.7163151018  Biso 1.0 O
O12 1.0000000000 0.2612282994 0.2163151018 0.2612282994  Biso 1.0 O
O13 1.0000000000 0.2612282994 0.7612282994 0.2612282994  Biso 1.0 O
O14 1.0000000000 0.7163151018 0.7612282994 0.2612282994  Biso 1.0 O
