# AFLOW.org Repositories
# Ga2Mg5   [ORCI,ORCI,oI28] (STD_PRIM doi:
data_Ga2Mg5
_pd_phase_name Ga2Mg5
_cell_length_a  8.2536483481
_cell_length_b  8.2536483481
_cell_length_c  8.2536483481
_cell_angle_alpha  137.2569067119
_cell_angle_beta  129.6867780128
_cell_angle_gamma  68.0995803457
_symmetry_space_group_name_H-M  'P1'
_symmetry_Int_Tables_Number  1
loop_
_symmetry_equiv_pos_site_id
_symmetry_equiv_pos_as_xyz
  1  x,y,z
loop_
 _atom_site_label
 _atom_site_occupancy
 _atom_site_fract_x
 _atom_site_fract_y
 _atom_site_fract_z
 _atom_site_thermal_displace_type
 _atom_site_B_iso_or_equiv
 _atom_site_type_symbol
Ga1 1.0000000000 0.6393594164 0.8771815425 0.7621778739  Biso 1.0 Ga
Ga2 1.0000000000 0.3606405836 0.1228184575 0.2378221261  Biso 1.0 Ga
Ga3 1.0000000000 0.8849963314 0.6228184575 0.2621778739  Biso 1.0 Ga
Ga4 1.0000000000 0.1150036686 0.3771815425 0.7378221261  Biso 1.0 Ga
Mg5 1.0000000000 0.5000000000 0.7500000000 0.2500000000  Biso 1.0 Mg
Mg6 1.0000000000 0.5000000000 0.2500000000 0.7500000000  Biso 1.0 Mg
Mg7 1.0000000000 0.7339801295 0.9839801295 0.2500000000  Biso 1.0 Mg
Mg8 1.0000000000 0.2660198705 0.5160198705 0.2500000000  Biso 1.0 Mg
Mg9 1.0000000000 0.2660198705 0.0160198705 0.7500000000  Biso 1.0 Mg
Mg10 1.0000000000 0.7339801295 0.4839801295 0.7500000000  Biso 1.0 Mg
Mg11 1.0000000000 0.0708667321 0.9175354108 0.1533313213  Biso 1.0 Mg
Mg12 1.0000000000 0.9291332679 0.0824645892 0.8466686787  Biso 1.0 Mg
Mg13 1.0000000000 0.2357959105 0.5824645892 0.6533313213  Biso 1.0 Mg
Mg14 1.0000000000 0.7642040895 0.4175354108 0.3466686787  Biso 1.0 Mg
