# AFLOW.org Repositories
# Ga2O6Te1   [TET,TET,tP18] (STD_PRIM doi:
data_Ga2O6Te1
_pd_phase_name Ga2O6Te1
_cell_length_a  4.6106827310
_cell_length_b  4.6106827310
_cell_length_c  9.0801965763
_cell_angle_alpha  90.0000000000
_cell_angle_beta  90.0000000000
_cell_angle_gamma  90.0000000000
_symmetry_space_group_name_H-M  'P1'
_symmetry_Int_Tables_Number  1
loop_
_symmetry_equiv_pos_site_id
_symmetry_equiv_pos_as_xyz
  1  x,y,z
loop_
 _atom_site_label
 _atom_site_occupancy
 _atom_site_fract_x
 _atom_site_fract_y
 _atom_site_fract_z
 _atom_site_thermal_displace_type
 _atom_site_B_iso_or_equiv
 _atom_site_type_symbol
Ga1 1.0000000000 0.0000000000 0.0000000000 0.6651863201  Biso 1.0 Ga
Ga2 1.0000000000 0.5000000000 0.5000000000 0.1651863201  Biso 1.0 Ga
Ga3 1.0000000000 0.5000000000 0.5000000000 0.8348136799  Biso 1.0 Ga
Ga4 1.0000000000 0.0000000000 0.0000000000 0.3348136799  Biso 1.0 Ga
O5 1.0000000000 0.3019272049 0.6980727951 0.0000000000  Biso 1.0 O
O6 1.0000000000 0.6980727951 0.3019272049 0.0000000000  Biso 1.0 O
O7 1.0000000000 0.8019272049 0.8019272049 0.5000000000  Biso 1.0 O
O8 1.0000000000 0.1980727951 0.1980727951 0.5000000000  Biso 1.0 O
O9 1.0000000000 0.1929186120 0.1929186120 0.1638709368  Biso 1.0 O
O10 1.0000000000 0.8070813880 0.8070813880 0.1638709368  Biso 1.0 O
O11 1.0000000000 0.3070813880 0.6929186120 0.6638709368  Biso 1.0 O
O12 1.0000000000 0.6929186120 0.3070813880 0.6638709368  Biso 1.0 O
O13 1.0000000000 0.3070813880 0.6929186120 0.3361290632  Biso 1.0 O
O14 1.0000000000 0.6929186120 0.3070813880 0.3361290632  Biso 1.0 O
O15 1.0000000000 0.1929186120 0.1929186120 0.8361290632  Biso 1.0 O
O16 1.0000000000 0.8070813880 0.8070813880 0.8361290632  Biso 1.0 O
Te17 1.0000000000 0.0000000000 0.0000000000 0.0000000000  Biso 1.0 Te
Te18 1.0000000000 0.5000000000 0.5000000000 0.5000000000  Biso 1.0 Te
