# AFLOW.org Repositories
# Ga2Zr3   [TET,TET,tP10] (STD_PRIM doi:10
data_Ga2Zr3
_pd_phase_name Ga2Zr3
_cell_length_a  7.3692030487
_cell_length_b  7.3692030487
_cell_length_c  3.6978649640
_cell_angle_alpha  90.0000000000
_cell_angle_beta  90.0000000000
_cell_angle_gamma  90.0000000000
_symmetry_space_group_name_H-M  'P1'
_symmetry_Int_Tables_Number  1
loop_
_symmetry_equiv_pos_site_id
_symmetry_equiv_pos_as_xyz
  1  x,y,z
loop_
 _atom_site_label
 _atom_site_occupancy
 _atom_site_fract_x
 _atom_site_fract_y
 _atom_site_fract_z
 _atom_site_thermal_displace_type
 _atom_site_B_iso_or_equiv
 _atom_site_type_symbol
Ga1 1.0000000000 0.3771392141 0.8771392141 0.0000000000  Biso 1.0 Ga
Ga2 1.0000000000 0.6228607859 0.1228607859 0.0000000000  Biso 1.0 Ga
Ga3 1.0000000000 0.1228607859 0.3771392141 0.0000000000  Biso 1.0 Ga
Ga4 1.0000000000 0.8771392141 0.6228607859 0.0000000000  Biso 1.0 Ga
Zr5 1.0000000000 0.0000000000 0.0000000000 0.0000000000  Biso 1.0 Zr
Zr6 1.0000000000 0.5000000000 0.5000000000 0.0000000000  Biso 1.0 Zr
Zr7 1.0000000000 0.1769867861 0.6769867861 0.5000000000  Biso 1.0 Zr
Zr8 1.0000000000 0.8230132139 0.3230132139 0.5000000000  Biso 1.0 Zr
Zr9 1.0000000000 0.3230132139 0.1769867861 0.5000000000  Biso 1.0 Zr
Zr10 1.0000000000 0.6769867861 0.8230132139 0.5000000000  Biso 1.0 Zr
