# AFLOW.org Repositories
# Ga3Ni5   [ORCC,ORCC,oS16] (STD_PRIM doi:
data_Ga3Ni5
_pd_phase_name Ga3Ni5
_cell_length_a  4.9966992862
_cell_length_b  4.9966992862
_cell_length_c  3.7349872388
_cell_angle_alpha  90.0000000000
_cell_angle_beta  90.0000000000
_cell_angle_gamma  97.1515085681
_symmetry_space_group_name_H-M  'P1'
_symmetry_Int_Tables_Number  1
loop_
_symmetry_equiv_pos_site_id
_symmetry_equiv_pos_as_xyz
  1  x,y,z
loop_
 _atom_site_label
 _atom_site_occupancy
 _atom_site_fract_x
 _atom_site_fract_y
 _atom_site_fract_z
 _atom_site_thermal_displace_type
 _atom_site_B_iso_or_equiv
 _atom_site_type_symbol
Ga1 1.0000000000 0.0000000000 0.0000000000 0.0000000000  Biso 1.0 Ga
Ga2 1.0000000000 0.2826200328 0.7173799672 0.5000000000  Biso 1.0 Ga
Ga3 1.0000000000 0.7173799672 0.2826200328 0.5000000000  Biso 1.0 Ga
Ni4 1.0000000000 0.5000000000 0.5000000000 0.0000000000  Biso 1.0 Ni
Ni5 1.0000000000 0.5000000000 0.0000000000 0.0000000000  Biso 1.0 Ni
Ni6 1.0000000000 0.0000000000 0.5000000000 0.0000000000  Biso 1.0 Ni
Ni7 1.0000000000 0.2229460070 0.2229460070 0.5000000000  Biso 1.0 Ni
Ni8 1.0000000000 0.7770539930 0.7770539930 0.5000000000  Biso 1.0 Ni
