# AFLOW.org Repositories
# Ga3Pt2   [HEX,HEX,hP5] (STD_PRIM doi:10.
data_Ga3Pt2
_pd_phase_name Ga3Pt2
_cell_length_a  4.2771330145
_cell_length_b  4.2771330145
_cell_length_c  5.2736911039
_cell_angle_alpha  90.0000000000
_cell_angle_beta  90.0000000000
_cell_angle_gamma  120.0000000000
_symmetry_space_group_name_H-M  'P1'
_symmetry_Int_Tables_Number  1
loop_
_symmetry_equiv_pos_site_id
_symmetry_equiv_pos_as_xyz
  1  x,y,z
loop_
 _atom_site_label
 _atom_site_occupancy
 _atom_site_fract_x
 _atom_site_fract_y
 _atom_site_fract_z
 _atom_site_thermal_displace_type
 _atom_site_B_iso_or_equiv
 _atom_site_type_symbol
Ga1 1.0000000000 0.0000000000 0.0000000000 0.0000000000  Biso 1.0 Ga
Ga2 1.0000000000 0.6666743638 0.3333487276 0.6435240872  Biso 1.0 Ga
Ga3 1.0000000000 0.3333256362 0.6666512724 0.3564759128  Biso 1.0 Ga
Pt4 1.0000000000 0.6666663534 0.3333327068 0.1648978371  Biso 1.0 Pt
Pt5 1.0000000000 0.3333336466 0.6666672932 0.8351021629  Biso 1.0 Pt
