# AFLOW.org Repositories
# Ga4Nb5                                  
data_Ga4Nb5
_pd_phase_name Ga4Nb5
_cell_length_a  8.0118655454
_cell_length_b  8.0118655454
_cell_length_c  5.4899916810
_cell_angle_alpha  90.0000000000
_cell_angle_beta  90.0000000000
_cell_angle_gamma  120.0000000000
_symmetry_space_group_name_H-M  'P1'
_symmetry_Int_Tables_Number  1
loop_
_symmetry_equiv_pos_site_id
_symmetry_equiv_pos_as_xyz
  1  x,y,z
loop_
 _atom_site_label
 _atom_site_occupancy
 _atom_site_fract_x
 _atom_site_fract_y
 _atom_site_fract_z
 _atom_site_thermal_displace_type
 _atom_site_B_iso_or_equiv
 _atom_site_type_symbol
Ga1 1.0000000000 0.0000000000 0.0000000000 0.0000000000  Biso 1.0 Ga
Ga2 1.0000000000 0.0000000000 0.0000000000 0.5000000000  Biso 1.0 Ga
Ga3 1.0000000000 0.0000000000 0.3843966705 0.2500000000  Biso 1.0 Ga
Ga4 1.0000000000 0.6156033295 0.6156033295 0.2500000000  Biso 1.0 Ga
Ga5 1.0000000000 0.3844080104 0.0000000000 0.2500000000  Biso 1.0 Ga
Ga6 1.0000000000 0.0000000000 0.6156033295 0.7500000000  Biso 1.0 Ga
Ga7 1.0000000000 0.3843966705 0.3843966705 0.7500000000  Biso 1.0 Ga
Ga8 1.0000000000 0.6155919896 0.0000000000 0.7500000000  Biso 1.0 Ga
Nb9 1.0000000000 0.6666760263 0.3333520526 0.0000000000  Biso 1.0 Nb
Nb10 1.0000000000 0.3333239737 0.6666479474 0.5000000000  Biso 1.0 Nb
Nb11 1.0000000000 0.3333239737 0.6666479474 0.0000000000  Biso 1.0 Nb
Nb12 1.0000000000 0.6666760263 0.3333520526 0.5000000000  Biso 1.0 Nb
Nb13 1.0000000000 0.0000000000 0.7200667144 0.2500000000  Biso 1.0 Nb
Nb14 1.0000000000 0.2799332856 0.2799332856 0.2500000000  Biso 1.0 Nb
Nb15 1.0000000000 0.7200644547 0.0000000000 0.2500000000  Biso 1.0 Nb
Nb16 1.0000000000 0.0000000000 0.2799332856 0.7500000000  Biso 1.0 Nb
Nb17 1.0000000000 0.7200667144 0.7200667144 0.7500000000  Biso 1.0 Nb
Nb18 1.0000000000 0.2799355453 0.0000000000 0.7500000000  Biso 1.0 Nb
