# AFLOW.org Repositories
# Gd2O2Se1   [HEX,HEX,hP5] (STD_PRIM doi:1
data_Gd2O2Se1
_pd_phase_name Gd2O2Se1
_cell_length_a  3.9170356195
_cell_length_b  3.9170356195
_cell_length_c  6.9303665211
_cell_angle_alpha  90.0000000000
_cell_angle_beta  90.0000000000
_cell_angle_gamma  120.0000000000
_symmetry_space_group_name_H-M  'P1'
_symmetry_Int_Tables_Number  1
loop_
_symmetry_equiv_pos_site_id
_symmetry_equiv_pos_as_xyz
  1  x,y,z
loop_
 _atom_site_label
 _atom_site_occupancy
 _atom_site_fract_x
 _atom_site_fract_y
 _atom_site_fract_z
 _atom_site_thermal_displace_type
 _atom_site_B_iso_or_equiv
 _atom_site_type_symbol
Gd1 1.0000000000 0.6666680606 0.3333360779 0.2895830088  Biso 1.0 Gd
Gd2 1.0000000000 0.3333319394 0.6666639221 0.7104169912  Biso 1.0 Gd
O3 1.0000000000 0.6666660334 0.3333320383 0.6258356194  Biso 1.0 O
O4 1.0000000000 0.3333339666 0.6666679617 0.3741643806  Biso 1.0 O
Se5 1.0000000000 0.0000000000 0.0000000000 0.0000000000  Biso 1.0 Se
