# AFLOW.org Repositories
# Gd2S3   [ORC,ORC,oP20] (STD_PRIM doi:10.
data_Gd2S3
_pd_phase_name Gd2S3
_cell_length_a  3.9342347827
_cell_length_b  10.5750803282
_cell_length_c  10.7905088340
_cell_angle_alpha  90.0000000000
_cell_angle_beta  90.0000000000
_cell_angle_gamma  90.0000000000
_symmetry_space_group_name_H-M  'P1'
_symmetry_Int_Tables_Number  1
loop_
_symmetry_equiv_pos_site_id
_symmetry_equiv_pos_as_xyz
  1  x,y,z
loop_
 _atom_site_label
 _atom_site_occupancy
 _atom_site_fract_x
 _atom_site_fract_y
 _atom_site_fract_z
 _atom_site_thermal_displace_type
 _atom_site_B_iso_or_equiv
 _atom_site_type_symbol
Gd1 1.0000000000 0.7500000000 0.6861369860 0.9903891868  Biso 1.0 Gd
Gd2 1.0000000000 0.2500000000 0.1861369860 0.5096108132  Biso 1.0 Gd
Gd3 1.0000000000 0.2500000000 0.3138630140 0.0096108132  Biso 1.0 Gd
Gd4 1.0000000000 0.7500000000 0.8138630140 0.4903891868  Biso 1.0 Gd
Gd5 1.0000000000 0.7500000000 0.4953379558 0.3086053395  Biso 1.0 Gd
Gd6 1.0000000000 0.2500000000 0.9953379558 0.1913946605  Biso 1.0 Gd
Gd7 1.0000000000 0.2500000000 0.5046620442 0.6913946605  Biso 1.0 Gd
Gd8 1.0000000000 0.7500000000 0.0046620442 0.8086053395  Biso 1.0 Gd
S9 1.0000000000 0.7500000000 0.1271316301 0.0462203174  Biso 1.0 S
S10 1.0000000000 0.2500000000 0.6271316301 0.4537796826  Biso 1.0 S
S11 1.0000000000 0.2500000000 0.8728683699 0.9537796826  Biso 1.0 S
S12 1.0000000000 0.7500000000 0.3728683699 0.5462203174  Biso 1.0 S
S13 1.0000000000 0.7500000000 0.4446810252 0.8799430332  Biso 1.0 S
S14 1.0000000000 0.2500000000 0.9446810252 0.6200569668  Biso 1.0 S
S15 1.0000000000 0.2500000000 0.5553189748 0.1200569668  Biso 1.0 S
S16 1.0000000000 0.7500000000 0.0553189748 0.3799430332  Biso 1.0 S
S17 1.0000000000 0.7500000000 0.8029759017 0.2277489365  Biso 1.0 S
S18 1.0000000000 0.2500000000 0.3029759017 0.2722510635  Biso 1.0 S
S19 1.0000000000 0.2500000000 0.1970240983 0.7722510635  Biso 1.0 S
S20 1.0000000000 0.7500000000 0.6970240983 0.7277489365  Biso 1.0 S
