# AFLOW.org Repositories
# Ge13Ho3Rh4   [CUB,CUB,cP40] (STD_PRIM do
data_Ge13Ho3Rh4
_pd_phase_name Ge13Ho3Rh4
_cell_length_a  8.9879814830
_cell_length_b  8.9879814830
_cell_length_c  8.9879814830
_cell_angle_alpha  90.0000000000
_cell_angle_beta  90.0000000000
_cell_angle_gamma  90.0000000000
_symmetry_space_group_name_H-M  'P1'
_symmetry_Int_Tables_Number  1
loop_
_symmetry_equiv_pos_site_id
_symmetry_equiv_pos_as_xyz
  1  x,y,z
loop_
 _atom_site_label
 _atom_site_occupancy
 _atom_site_fract_x
 _atom_site_fract_y
 _atom_site_fract_z
 _atom_site_thermal_displace_type
 _atom_site_B_iso_or_equiv
 _atom_site_type_symbol
Ge1 1.0000000000 0.0000000000 0.0000000000 0.0000000000  Biso 1.0 Ge
Ge2 1.0000000000 0.5000000000 0.5000000000 0.5000000000  Biso 1.0 Ge
Ge3 1.0000000000 0.0000000000 0.8527176281 0.3103751072  Biso 1.0 Ge
Ge4 1.0000000000 0.0000000000 0.1472823719 0.3103751072  Biso 1.0 Ge
Ge5 1.0000000000 0.0000000000 0.8527176281 0.6896248928  Biso 1.0 Ge
Ge6 1.0000000000 0.0000000000 0.1472823719 0.6896248928  Biso 1.0 Ge
Ge7 1.0000000000 0.6896248928 0.0000000000 0.1472823719  Biso 1.0 Ge
Ge8 1.0000000000 0.6896248928 0.0000000000 0.8527176281  Biso 1.0 Ge
Ge9 1.0000000000 0.3103751072 0.0000000000 0.1472823719  Biso 1.0 Ge
Ge10 1.0000000000 0.3103751072 0.0000000000 0.8527176281  Biso 1.0 Ge
Ge11 1.0000000000 0.8527176281 0.6896248928 0.0000000000  Biso 1.0 Ge
Ge12 1.0000000000 0.1472823719 0.6896248928 0.0000000000  Biso 1.0 Ge
Ge13 1.0000000000 0.8527176281 0.3103751072 0.0000000000  Biso 1.0 Ge
Ge14 1.0000000000 0.1472823719 0.3103751072 0.0000000000  Biso 1.0 Ge
Ge15 1.0000000000 0.3527176281 0.5000000000 0.1896248928  Biso 1.0 Ge
Ge16 1.0000000000 0.6472823719 0.5000000000 0.1896248928  Biso 1.0 Ge
Ge17 1.0000000000 0.3527176281 0.5000000000 0.8103751072  Biso 1.0 Ge
Ge18 1.0000000000 0.6472823719 0.5000000000 0.8103751072  Biso 1.0 Ge
Ge19 1.0000000000 0.5000000000 0.1896248928 0.3527176281  Biso 1.0 Ge
Ge20 1.0000000000 0.5000000000 0.1896248928 0.6472823719  Biso 1.0 Ge
Ge21 1.0000000000 0.5000000000 0.8103751072 0.3527176281  Biso 1.0 Ge
Ge22 1.0000000000 0.5000000000 0.8103751072 0.6472823719  Biso 1.0 Ge
Ge23 1.0000000000 0.1896248928 0.3527176281 0.5000000000  Biso 1.0 Ge
Ge24 1.0000000000 0.1896248928 0.6472823719 0.5000000000  Biso 1.0 Ge
Ge25 1.0000000000 0.8103751072 0.3527176281 0.5000000000  Biso 1.0 Ge
Ge26 1.0000000000 0.8103751072 0.6472823719 0.5000000000  Biso 1.0 Ge
Ho27 1.0000000000 0.7500000000 0.0000000000 0.5000000000  Biso 1.0 Ho
Ho28 1.0000000000 0.2500000000 0.0000000000 0.5000000000  Biso 1.0 Ho
Ho29 1.0000000000 0.5000000000 0.7500000000 0.0000000000  Biso 1.0 Ho
Ho30 1.0000000000 0.5000000000 0.2500000000 0.0000000000  Biso 1.0 Ho
Ho31 1.0000000000 0.0000000000 0.5000000000 0.2500000000  Biso 1.0 Ho
Ho32 1.0000000000 0.0000000000 0.5000000000 0.7500000000  Biso 1.0 Ho
Rh33 1.0000000000 0.7500000000 0.7500000000 0.2500000000  Biso 1.0 Rh
Rh34 1.0000000000 0.2500000000 0.2500000000 0.2500000000  Biso 1.0 Rh
Rh35 1.0000000000 0.2500000000 0.7500000000 0.7500000000  Biso 1.0 Rh
Rh36 1.0000000000 0.7500000000 0.2500000000 0.7500000000  Biso 1.0 Rh
Rh37 1.0000000000 0.2500000000 0.2500000000 0.7500000000  Biso 1.0 Rh
Rh38 1.0000000000 0.7500000000 0.7500000000 0.7500000000  Biso 1.0 Rh
Rh39 1.0000000000 0.7500000000 0.2500000000 0.2500000000  Biso 1.0 Rh
Rh40 1.0000000000 0.2500000000 0.7500000000 0.2500000000  Biso 1.0 Rh
