# AFLOW.org Repositories
# Ge1Ho1Sn1   [ORCC,ORCC,oS12] (STD_PRIM d
data_Ge1Ho1Sn1
_pd_phase_name Ge1Ho1Sn1
_cell_length_a  8.4266524459
_cell_length_b  8.4266524459
_cell_length_c  4.0966700619
_cell_angle_alpha  90.0000000000
_cell_angle_beta  90.0000000000
_cell_angle_gamma  150.4028386810
_symmetry_space_group_name_H-M  'P1'
_symmetry_Int_Tables_Number  1
loop_
_symmetry_equiv_pos_site_id
_symmetry_equiv_pos_as_xyz
  1  x,y,z
loop_
 _atom_site_label
 _atom_site_occupancy
 _atom_site_fract_x
 _atom_site_fract_y
 _atom_site_fract_z
 _atom_site_thermal_displace_type
 _atom_site_B_iso_or_equiv
 _atom_site_type_symbol
Ge1 1.0000000000 0.4459899272 0.5540100728 0.7500000000  Biso 1.0 Ge
Ge2 1.0000000000 0.5540100728 0.4459899272 0.2500000000  Biso 1.0 Ge
Ho3 1.0000000000 0.0935951265 0.9064048735 0.7500000000  Biso 1.0 Ho
Ho4 1.0000000000 0.9064048735 0.0935951265 0.2500000000  Biso 1.0 Ho
Sn5 1.0000000000 0.7444558564 0.2555441436 0.7500000000  Biso 1.0 Sn
Sn6 1.0000000000 0.2555441436 0.7444558564 0.2500000000  Biso 1.0 Sn
