# AFLOW.org Repositories
# Ge1Ir1Nb1   [ORC,ORC,oP12] (STD_PRIM doi
data_Ge1Ir1Nb1
_pd_phase_name Ge1Ir1Nb1
_cell_length_a  3.9054562664
_cell_length_b  6.5104521299
_cell_length_c  7.4419770149
_cell_angle_alpha  90.0000000000
_cell_angle_beta  90.0000000000
_cell_angle_gamma  90.0000000000
_symmetry_space_group_name_H-M  'P1'
_symmetry_Int_Tables_Number  1
loop_
_symmetry_equiv_pos_site_id
_symmetry_equiv_pos_as_xyz
  1  x,y,z
loop_
 _atom_site_label
 _atom_site_occupancy
 _atom_site_fract_x
 _atom_site_fract_y
 _atom_site_fract_z
 _atom_site_thermal_displace_type
 _atom_site_B_iso_or_equiv
 _atom_site_type_symbol
Ge1 1.0000000000 0.2500000000 0.7386009796 0.6232524222  Biso 1.0 Ge
Ge2 1.0000000000 0.7500000000 0.7613990204 0.1232524222  Biso 1.0 Ge
Ge3 1.0000000000 0.7500000000 0.2613990204 0.3767475778  Biso 1.0 Ge
Ge4 1.0000000000 0.2500000000 0.2386009796 0.8767475778  Biso 1.0 Ge
Ir5 1.0000000000 0.2500000000 0.3561762619 0.5618829341  Biso 1.0 Ir
Ir6 1.0000000000 0.7500000000 0.1438237381 0.0618829341  Biso 1.0 Ir
Ir7 1.0000000000 0.7500000000 0.6438237381 0.4381170659  Biso 1.0 Ir
Ir8 1.0000000000 0.2500000000 0.8561762619 0.9381170659  Biso 1.0 Ir
Nb9 1.0000000000 0.2500000000 0.9743476908 0.3215416552  Biso 1.0 Nb
Nb10 1.0000000000 0.7500000000 0.5256523092 0.8215416552  Biso 1.0 Nb
Nb11 1.0000000000 0.7500000000 0.0256523092 0.6784583448  Biso 1.0 Nb
Nb12 1.0000000000 0.2500000000 0.4743476908 0.1784583448  Biso 1.0 Nb
