# AFLOW.org Repositories
# Ge1Ir1Sc1   [ORC,ORC,oP12] (STD_PRIM doi
data_Ge1Ir1Sc1
_pd_phase_name Ge1Ir1Sc1
_cell_length_a  4.1751227184
_cell_length_b  6.5734262647
_cell_length_c  7.5000315837
_cell_angle_alpha  90.0000000000
_cell_angle_beta  90.0000000000
_cell_angle_gamma  90.0000000000
_symmetry_space_group_name_H-M  'P1'
_symmetry_Int_Tables_Number  1
loop_
_symmetry_equiv_pos_site_id
_symmetry_equiv_pos_as_xyz
  1  x,y,z
loop_
 _atom_site_label
 _atom_site_occupancy
 _atom_site_fract_x
 _atom_site_fract_y
 _atom_site_fract_z
 _atom_site_thermal_displace_type
 _atom_site_B_iso_or_equiv
 _atom_site_type_symbol
Ge1 1.0000000000 0.2500000000 0.2855931526 0.6195109534  Biso 1.0 Ge
Ge2 1.0000000000 0.7500000000 0.2144068474 0.1195109534  Biso 1.0 Ge
Ge3 1.0000000000 0.7500000000 0.7144068474 0.3804890466  Biso 1.0 Ge
Ge4 1.0000000000 0.2500000000 0.7855931526 0.8804890466  Biso 1.0 Ge
Ir5 1.0000000000 0.2500000000 0.1628582991 0.9407315998  Biso 1.0 Ir
Ir6 1.0000000000 0.7500000000 0.3371417009 0.4407315998  Biso 1.0 Ir
Ir7 1.0000000000 0.7500000000 0.8371417009 0.0592684002  Biso 1.0 Ir
Ir8 1.0000000000 0.2500000000 0.6628582991 0.5592684002  Biso 1.0 Ir
Sc9 1.0000000000 0.2500000000 0.0130573243 0.3113532836  Biso 1.0 Sc
Sc10 1.0000000000 0.7500000000 0.4869426757 0.8113532836  Biso 1.0 Sc
Sc11 1.0000000000 0.7500000000 0.9869426757 0.6886467164  Biso 1.0 Sc
Sc12 1.0000000000 0.2500000000 0.5130573243 0.1886467164  Biso 1.0 Sc
