# AFLOW.org Repositories
# Ge1Mn2O4   [ORC,ORC,oP14] (STD_PRIM doi:
data_Ge1Mn2O4
_pd_phase_name Ge1Mn2O4
_cell_length_a  3.0088640734
_cell_length_b  5.3387709987
_cell_length_c  9.4091776787
_cell_angle_alpha  90.0000000000
_cell_angle_beta  90.0000000000
_cell_angle_gamma  90.0000000000
_symmetry_space_group_name_H-M  'P1'
_symmetry_Int_Tables_Number  1
loop_
_symmetry_equiv_pos_site_id
_symmetry_equiv_pos_as_xyz
  1  x,y,z
loop_
 _atom_site_label
 _atom_site_occupancy
 _atom_site_fract_x
 _atom_site_fract_y
 _atom_site_fract_z
 _atom_site_thermal_displace_type
 _atom_site_B_iso_or_equiv
 _atom_site_type_symbol
Ge1 1.0000000000 0.0000000000 0.0000000000 0.0000000000  Biso 1.0 Ge
Ge2 1.0000000000 0.0000000000 0.5000000000 0.5000000000  Biso 1.0 Ge
Mn3 1.0000000000 0.5000000000 0.0636909980 0.6772331718  Biso 1.0 Mn
Mn4 1.0000000000 0.5000000000 0.9363090020 0.3227668282  Biso 1.0 Mn
Mn5 1.0000000000 0.5000000000 0.4363090020 0.1772331718  Biso 1.0 Mn
Mn6 1.0000000000 0.5000000000 0.5636909980 0.8227668282  Biso 1.0 Mn
O7 1.0000000000 0.5000000000 0.2309019905 0.9565567014  Biso 1.0 O
O8 1.0000000000 0.5000000000 0.7690980095 0.0434432986  Biso 1.0 O
O9 1.0000000000 0.5000000000 0.2690980095 0.4565567014  Biso 1.0 O
O10 1.0000000000 0.5000000000 0.7309019905 0.5434432986  Biso 1.0 O
O11 1.0000000000 0.0000000000 0.3696363331 0.6876428701  Biso 1.0 O
O12 1.0000000000 0.0000000000 0.6303636669 0.3123571299  Biso 1.0 O
O13 1.0000000000 0.0000000000 0.1303636669 0.1876428701  Biso 1.0 O
O14 1.0000000000 0.0000000000 0.8696363331 0.8123571299  Biso 1.0 O
