# AFLOW.org Repositories
# Ge1Mg2O4   [FCC,FCC,cF56] (STD_PRIM doi:
data_Ge1Mg2O4
_pd_phase_name Ge1Mg2O4
_cell_length_a  5.9063253055
_cell_length_b  5.9063253055
_cell_length_c  5.9063253055
_cell_angle_alpha  60.0000000000
_cell_angle_beta  60.0000000000
_cell_angle_gamma  60.0000000000
_symmetry_space_group_name_H-M  'P1'
_symmetry_Int_Tables_Number  1
loop_
_symmetry_equiv_pos_site_id
_symmetry_equiv_pos_as_xyz
  1  x,y,z
loop_
 _atom_site_label
 _atom_site_occupancy
 _atom_site_fract_x
 _atom_site_fract_y
 _atom_site_fract_z
 _atom_site_thermal_displace_type
 _atom_site_B_iso_or_equiv
 _atom_site_type_symbol
Ge1 1.0000000000 0.0000000000 0.0000000000 0.0000000000  Biso 1.0 Ge
Ge2 1.0000000000 0.2500000000 0.2500000000 0.2500000000  Biso 1.0 Ge
Mg3 1.0000000000 0.6250000000 0.1250000000 0.6250000000  Biso 1.0 Mg
Mg4 1.0000000000 0.6250000000 0.6250000000 0.1250000000  Biso 1.0 Mg
Mg5 1.0000000000 0.1250000000 0.6250000000 0.6250000000  Biso 1.0 Mg
Mg6 1.0000000000 0.6250000000 0.6250000000 0.6250000000  Biso 1.0 Mg
O7 1.0000000000 0.3751182597 0.8746452208 0.3751182597  Biso 1.0 O
O8 1.0000000000 0.3751182597 0.3751182597 0.8746452208  Biso 1.0 O
O9 1.0000000000 0.8746452208 0.3751182597 0.3751182597  Biso 1.0 O
O10 1.0000000000 0.3751182597 0.3751182597 0.3751182597  Biso 1.0 O
O11 1.0000000000 0.8748817403 0.8748817403 0.3753547792  Biso 1.0 O
O12 1.0000000000 0.8748817403 0.3753547792 0.8748817403  Biso 1.0 O
O13 1.0000000000 0.3753547792 0.8748817403 0.8748817403  Biso 1.0 O
O14 1.0000000000 0.8748817403 0.8748817403 0.8748817403  Biso 1.0 O
