# AFLOW.org Repositories
# Ge1Mg1O3   [ORCC,ORCC,oS20] (STD_PRIM do
data_Ge1Mg1O3
_pd_phase_name Ge1Mg1O3
_cell_length_a  4.9468453563
_cell_length_b  4.9468453563
_cell_length_c  7.0300307061
_cell_angle_alpha  90.0000000000
_cell_angle_beta  90.0000000000
_cell_angle_gamma  146.4843407059
_symmetry_space_group_name_H-M  'P1'
_symmetry_Int_Tables_Number  1
loop_
_symmetry_equiv_pos_site_id
_symmetry_equiv_pos_as_xyz
  1  x,y,z
loop_
 _atom_site_label
 _atom_site_occupancy
 _atom_site_fract_x
 _atom_site_fract_y
 _atom_site_fract_z
 _atom_site_thermal_displace_type
 _atom_site_B_iso_or_equiv
 _atom_site_type_symbol
Ge1 1.0000000000 0.0000000000 0.0000000000 0.0000000000  Biso 1.0 Ge
Ge2 1.0000000000 0.0000000000 0.0000000000 0.5000000000  Biso 1.0 Ge
Mg3 1.0000000000 0.2601541032 0.7398458968 0.7500000000  Biso 1.0 Mg
Mg4 1.0000000000 0.7398458968 0.2601541032 0.2500000000  Biso 1.0 Mg
O5 1.0000000000 0.9155679166 0.0844320834 0.7500000000  Biso 1.0 O
O6 1.0000000000 0.0844320834 0.9155679166 0.2500000000  Biso 1.0 O
O7 1.0000000000 0.6317372037 0.3682627963 0.5596908643  Biso 1.0 O
O8 1.0000000000 0.3682627963 0.6317372037 0.0596908643  Biso 1.0 O
O9 1.0000000000 0.6317372037 0.3682627963 0.9403091357  Biso 1.0 O
O10 1.0000000000 0.3682627963 0.6317372037 0.4403091357  Biso 1.0 O
