# AFLOW.org Repositories
# Ge1Mn1Yb1   [ORC,ORC,oP12] (STD_PRIM doi
data_Ge1Mn1Yb1
_pd_phase_name Ge1Mn1Yb1
_cell_length_a  4.4117837845
_cell_length_b  7.4359578670
_cell_length_c  8.2395661316
_cell_angle_alpha  90.0000000000
_cell_angle_beta  90.0000000000
_cell_angle_gamma  90.0000000000
_symmetry_space_group_name_H-M  'P1'
_symmetry_Int_Tables_Number  1
loop_
_symmetry_equiv_pos_site_id
_symmetry_equiv_pos_as_xyz
  1  x,y,z
loop_
 _atom_site_label
 _atom_site_occupancy
 _atom_site_fract_x
 _atom_site_fract_y
 _atom_site_fract_z
 _atom_site_thermal_displace_type
 _atom_site_B_iso_or_equiv
 _atom_site_type_symbol
Ge1 1.0000000000 0.2500000000 0.2744384163 0.6161938721  Biso 1.0 Ge
Ge2 1.0000000000 0.7500000000 0.2255615837 0.1161938721  Biso 1.0 Ge
Ge3 1.0000000000 0.7500000000 0.7255615837 0.3838061279  Biso 1.0 Ge
Ge4 1.0000000000 0.2500000000 0.7744384163 0.8838061279  Biso 1.0 Ge
Mn5 1.0000000000 0.2500000000 0.1429288771 0.9364724308  Biso 1.0 Mn
Mn6 1.0000000000 0.7500000000 0.3570711229 0.4364724308  Biso 1.0 Mn
Mn7 1.0000000000 0.7500000000 0.8570711229 0.0635275692  Biso 1.0 Mn
Mn8 1.0000000000 0.2500000000 0.6429288771 0.5635275692  Biso 1.0 Mn
Yb9 1.0000000000 0.2500000000 0.0163230098 0.3199408903  Biso 1.0 Yb
Yb10 1.0000000000 0.7500000000 0.4836769902 0.8199408903  Biso 1.0 Yb
Yb11 1.0000000000 0.7500000000 0.9836769902 0.6800591097  Biso 1.0 Yb
Yb12 1.0000000000 0.2500000000 0.5163230098 0.1800591097  Biso 1.0 Yb
