# AFLOW.org Repositories
# Ge1Mn1   [CUB,CUB,cP8] (STD_PRIM doi:10.
data_Ge1Mn1
_pd_phase_name Ge1Mn1
_cell_length_a  5.2345945609
_cell_length_b  5.2345945609
_cell_length_c  5.2345945609
_cell_angle_alpha  90.0000000000
_cell_angle_beta  90.0000000000
_cell_angle_gamma  90.0000000000
_symmetry_space_group_name_H-M  'P1'
_symmetry_Int_Tables_Number  1
loop_
_symmetry_equiv_pos_site_id
_symmetry_equiv_pos_as_xyz
  1  x,y,z
loop_
 _atom_site_label
 _atom_site_occupancy
 _atom_site_fract_x
 _atom_site_fract_y
 _atom_site_fract_z
 _atom_site_thermal_displace_type
 _atom_site_B_iso_or_equiv
 _atom_site_type_symbol
Ge1 1.0000000000 0.1552559798 0.1552559798 0.8447440202  Biso 1.0 Ge
Ge2 1.0000000000 0.3447440202 0.8447440202 0.3447440202  Biso 1.0 Ge
Ge3 1.0000000000 0.8447440202 0.6552559798 0.6552559798  Biso 1.0 Ge
Ge4 1.0000000000 0.6552559798 0.3447440202 0.1552559798  Biso 1.0 Ge
Mn5 1.0000000000 0.8533463633 0.8533463633 0.1466536367  Biso 1.0 Mn
Mn6 1.0000000000 0.6466536367 0.1466536367 0.6466536367  Biso 1.0 Mn
Mn7 1.0000000000 0.1466536367 0.3533463633 0.3533463633  Biso 1.0 Mn
Mn8 1.0000000000 0.3533463633 0.6466536367 0.8533463633  Biso 1.0 Mn
