# AFLOW.org Repositories
# Ge1Nb1Pt1   [ORC,ORC,oP12] (STD_PRIM doi
data_Ge1Nb1Pt1
_pd_phase_name Ge1Nb1Pt1
_cell_length_a  3.9553000764
_cell_length_b  6.5127419323
_cell_length_c  7.5730808205
_cell_angle_alpha  90.0000000000
_cell_angle_beta  90.0000000000
_cell_angle_gamma  90.0000000000
_symmetry_space_group_name_H-M  'P1'
_symmetry_Int_Tables_Number  1
loop_
_symmetry_equiv_pos_site_id
_symmetry_equiv_pos_as_xyz
  1  x,y,z
loop_
 _atom_site_label
 _atom_site_occupancy
 _atom_site_fract_x
 _atom_site_fract_y
 _atom_site_fract_z
 _atom_site_thermal_displace_type
 _atom_site_B_iso_or_equiv
 _atom_site_type_symbol
Ge1 1.0000000000 0.2500000000 0.2652468941 0.6240663120  Biso 1.0 Ge
Ge2 1.0000000000 0.7500000000 0.2347531059 0.1240663120  Biso 1.0 Ge
Ge3 1.0000000000 0.7500000000 0.7347531059 0.3759336880  Biso 1.0 Ge
Ge4 1.0000000000 0.2500000000 0.7652468941 0.8759336880  Biso 1.0 Ge
Nb5 1.0000000000 0.2500000000 0.0272966507 0.3293872220  Biso 1.0 Nb
Nb6 1.0000000000 0.7500000000 0.4727033493 0.8293872220  Biso 1.0 Nb
Nb7 1.0000000000 0.7500000000 0.9727033493 0.6706127780  Biso 1.0 Nb
Nb8 1.0000000000 0.2500000000 0.5272966507 0.1706127780  Biso 1.0 Nb
Pt9 1.0000000000 0.2500000000 0.1556955990 0.9347410572  Biso 1.0 Pt
Pt10 1.0000000000 0.7500000000 0.3443044010 0.4347410572  Biso 1.0 Pt
Pt11 1.0000000000 0.7500000000 0.8443044010 0.0652589428  Biso 1.0 Pt
Pt12 1.0000000000 0.2500000000 0.6556955990 0.5652589428  Biso 1.0 Pt
