# AFLOW.org Repositories
# Ge1O2   [ORC,ORC,oP12] (STD_PRIM doi:10.
data_Ge1O2
_pd_phase_name Ge1O2
_cell_length_a  4.3821862177
_cell_length_b  4.8421377656
_cell_length_c  5.4091922097
_cell_angle_alpha  90.0000000000
_cell_angle_beta  90.0000000000
_cell_angle_gamma  90.0000000000
_symmetry_space_group_name_H-M  'P1'
_symmetry_Int_Tables_Number  1
loop_
_symmetry_equiv_pos_site_id
_symmetry_equiv_pos_as_xyz
  1  x,y,z
loop_
 _atom_site_label
 _atom_site_occupancy
 _atom_site_fract_x
 _atom_site_fract_y
 _atom_site_fract_z
 _atom_site_thermal_displace_type
 _atom_site_B_iso_or_equiv
 _atom_site_type_symbol
Ge1 1.0000000000 0.0000000000 0.2500000000 0.1594613446  Biso 1.0 Ge
Ge2 1.0000000000 0.5000000000 0.7500000000 0.3405386554  Biso 1.0 Ge
Ge3 1.0000000000 0.0000000000 0.7500000000 0.8405386554  Biso 1.0 Ge
Ge4 1.0000000000 0.5000000000 0.2500000000 0.6594613446  Biso 1.0 Ge
O5 1.0000000000 0.7680640117 0.4216586839 0.8881272566  Biso 1.0 O
O6 1.0000000000 0.7319359883 0.9216586839 0.6118727434  Biso 1.0 O
O7 1.0000000000 0.2319359883 0.0783413161 0.8881272566  Biso 1.0 O
O8 1.0000000000 0.2680640117 0.5783413161 0.6118727434  Biso 1.0 O
O9 1.0000000000 0.2319359883 0.5783413161 0.1118727434  Biso 1.0 O
O10 1.0000000000 0.2680640117 0.0783413161 0.3881272566  Biso 1.0 O
O11 1.0000000000 0.7680640117 0.9216586839 0.1118727434  Biso 1.0 O
O12 1.0000000000 0.7319359883 0.4216586839 0.3881272566  Biso 1.0 O
