# AFLOW.org Repositories
# Ge1O8Zr3   [BCT,BCT2,tI24] (STD_PRIM doi
data_Ge1O8Zr3
_pd_phase_name Ge1O8Zr3
_cell_length_a  6.4130870007
_cell_length_b  6.4130870007
_cell_length_c  6.4130870007
_cell_angle_alpha  133.4093148703
_cell_angle_beta  133.4093148703
_cell_angle_gamma  68.0120708636
_symmetry_space_group_name_H-M  'P1'
_symmetry_Int_Tables_Number  1
loop_
_symmetry_equiv_pos_site_id
_symmetry_equiv_pos_as_xyz
  1  x,y,z
loop_
 _atom_site_label
 _atom_site_occupancy
 _atom_site_fract_x
 _atom_site_fract_y
 _atom_site_fract_z
 _atom_site_thermal_displace_type
 _atom_site_B_iso_or_equiv
 _atom_site_type_symbol
Ge1 1.0000000000 0.0000000000 0.0000000000 0.0000000000  Biso 1.0 Ge
O2 1.0000000000 0.4637386920 0.8555843054 0.0000000000  Biso 1.0 O
O3 1.0000000000 0.8555843054 0.4637386920 0.0000000000  Biso 1.0 O
O4 1.0000000000 0.5362613080 0.5362613080 0.3918456134  Biso 1.0 O
O5 1.0000000000 0.1444156946 0.1444156946 0.6081543866  Biso 1.0 O
O6 1.0000000000 0.6968943149 0.1249531351 0.0000000000  Biso 1.0 O
O7 1.0000000000 0.1249531351 0.6968943149 0.0000000000  Biso 1.0 O
O8 1.0000000000 0.3031056851 0.3031056851 0.4280588202  Biso 1.0 O
O9 1.0000000000 0.8750468649 0.8750468649 0.5719411798  Biso 1.0 O
Zr10 1.0000000000 0.5000000000 0.5000000000 0.0000000000  Biso 1.0 Zr
Zr11 1.0000000000 0.2500000000 0.7500000000 0.5000000000  Biso 1.0 Zr
Zr12 1.0000000000 0.7500000000 0.2500000000 0.5000000000  Biso 1.0 Zr
