# AFLOW.org Repositories
# Ge1Pt1Y1   [ORC,ORC,oP12] (STD_PRIM doi:
data_Ge1Pt1Y1
_pd_phase_name Ge1Pt1Y1
_cell_length_a  4.3795996089
_cell_length_b  7.0432410902
_cell_length_c  7.6081842711
_cell_angle_alpha  90.0000000000
_cell_angle_beta  90.0000000000
_cell_angle_gamma  90.0000000000
_symmetry_space_group_name_H-M  'P1'
_symmetry_Int_Tables_Number  1
loop_
_symmetry_equiv_pos_site_id
_symmetry_equiv_pos_as_xyz
  1  x,y,z
loop_
 _atom_site_label
 _atom_site_occupancy
 _atom_site_fract_x
 _atom_site_fract_y
 _atom_site_fract_z
 _atom_site_thermal_displace_type
 _atom_site_B_iso_or_equiv
 _atom_site_type_symbol
Ge1 1.0000000000 0.2500000000 0.8085022382 0.4114126508  Biso 1.0 Ge
Ge2 1.0000000000 0.7500000000 0.6914977618 0.9114126508  Biso 1.0 Ge
Ge3 1.0000000000 0.7500000000 0.1914977618 0.5885873492  Biso 1.0 Ge
Ge4 1.0000000000 0.2500000000 0.3085022382 0.0885873492  Biso 1.0 Ge
Pt5 1.0000000000 0.2500000000 0.2044067612 0.4167941616  Biso 1.0 Pt
Pt6 1.0000000000 0.7500000000 0.2955932388 0.9167941616  Biso 1.0 Pt
Pt7 1.0000000000 0.7500000000 0.7955932388 0.5832058384  Biso 1.0 Pt
Pt8 1.0000000000 0.2500000000 0.7044067612 0.0832058384  Biso 1.0 Pt
Y9 1.0000000000 0.2500000000 0.4980540095 0.7048397211  Biso 1.0 Y
Y10 1.0000000000 0.7500000000 0.0019459905 0.2048397211  Biso 1.0 Y
Y11 1.0000000000 0.7500000000 0.5019459905 0.2951602789  Biso 1.0 Y
Y12 1.0000000000 0.2500000000 0.9980540095 0.7951602789  Biso 1.0 Y
