# AFLOW.org Repositories
# Ge1Pt1Se1   [ORC,ORC,oP12] (STD_PRIM doi
data_Ge1Pt1Se1
_pd_phase_name Ge1Pt1Se1
_cell_length_a  6.0641923170
_cell_length_b  6.0891742330
_cell_length_c  6.1454441685
_cell_angle_alpha  90.0000000000
_cell_angle_beta  90.0000000000
_cell_angle_gamma  90.0000000000
_symmetry_space_group_name_H-M  'P1'
_symmetry_Int_Tables_Number  1
loop_
_symmetry_equiv_pos_site_id
_symmetry_equiv_pos_as_xyz
  1  x,y,z
loop_
 _atom_site_label
 _atom_site_occupancy
 _atom_site_fract_x
 _atom_site_fract_y
 _atom_site_fract_z
 _atom_site_thermal_displace_type
 _atom_site_B_iso_or_equiv
 _atom_site_type_symbol
Ge1 1.0000000000 0.3814978599 0.3810432061 0.8749502700  Biso 1.0 Ge
Ge2 1.0000000000 0.8814978599 0.6189567939 0.1250497300  Biso 1.0 Ge
Ge3 1.0000000000 0.3814978599 0.8810432061 0.1250497300  Biso 1.0 Ge
Ge4 1.0000000000 0.8814978599 0.1189567939 0.8749502700  Biso 1.0 Ge
Pt5 1.0000000000 0.0035107715 0.9917017522 0.2400970547  Biso 1.0 Pt
Pt6 1.0000000000 0.5035107715 0.0082982478 0.7599029453  Biso 1.0 Pt
Pt7 1.0000000000 0.0035107715 0.4917017522 0.7599029453  Biso 1.0 Pt
Pt8 1.0000000000 0.5035107715 0.5082982478 0.2400970547  Biso 1.0 Pt
Se9 1.0000000000 0.6161913686 0.6169931207 0.6369505740  Biso 1.0 Se
Se10 1.0000000000 0.1161913686 0.3830068793 0.3630494260  Biso 1.0 Se
Se11 1.0000000000 0.6161913686 0.1169931207 0.3630494260  Biso 1.0 Se
Se12 1.0000000000 0.1161913686 0.8830068793 0.6369505740  Biso 1.0 Se
