# AFLOW.org Repositories
# Ge1Rh2   [ORC,ORC,oP12] (STD_PRIM doi:10
data_Ge1Rh2
_pd_phase_name Ge1Rh2
_cell_length_a  4.0562648335
_cell_length_b  5.5113489392
_cell_length_c  7.6183164543
_cell_angle_alpha  90.0000000000
_cell_angle_beta  90.0000000000
_cell_angle_gamma  90.0000000000
_symmetry_space_group_name_H-M  'P1'
_symmetry_Int_Tables_Number  1
loop_
_symmetry_equiv_pos_site_id
_symmetry_equiv_pos_as_xyz
  1  x,y,z
loop_
 _atom_site_label
 _atom_site_occupancy
 _atom_site_fract_x
 _atom_site_fract_y
 _atom_site_fract_z
 _atom_site_thermal_displace_type
 _atom_site_B_iso_or_equiv
 _atom_site_type_symbol
Ge1 1.0000000000 0.2500000000 0.7138378295 0.6032818819  Biso 1.0 Ge
Ge2 1.0000000000 0.7500000000 0.7861621705 0.1032818819  Biso 1.0 Ge
Ge3 1.0000000000 0.7500000000 0.2861621705 0.3967181181  Biso 1.0 Ge
Ge4 1.0000000000 0.2500000000 0.2138378295 0.8967181181  Biso 1.0 Ge
Rh5 1.0000000000 0.2500000000 0.0301256242 0.2057267357  Biso 1.0 Rh
Rh6 1.0000000000 0.7500000000 0.4698743758 0.7057267357  Biso 1.0 Rh
Rh7 1.0000000000 0.7500000000 0.9698743758 0.7942732643  Biso 1.0 Rh
Rh8 1.0000000000 0.2500000000 0.5301256242 0.2942732643  Biso 1.0 Rh
Rh9 1.0000000000 0.2500000000 0.1645539626 0.5703849803  Biso 1.0 Rh
Rh10 1.0000000000 0.7500000000 0.3354460374 0.0703849803  Biso 1.0 Rh
Rh11 1.0000000000 0.7500000000 0.8354460374 0.4296150197  Biso 1.0 Rh
Rh12 1.0000000000 0.2500000000 0.6645539626 0.9296150197  Biso 1.0 Rh
