# AFLOW.org Repositories
# Ge1Rh1Ta1   [ORC,ORC,oP12] (STD_PRIM doi
data_Ge1Rh1Ta1
_pd_phase_name Ge1Rh1Ta1
_cell_length_a  3.8626436756
_cell_length_b  6.4852443395
_cell_length_c  7.4903228378
_cell_angle_alpha  90.0000000000
_cell_angle_beta  90.0000000000
_cell_angle_gamma  90.0000000000
_symmetry_space_group_name_H-M  'P1'
_symmetry_Int_Tables_Number  1
loop_
_symmetry_equiv_pos_site_id
_symmetry_equiv_pos_as_xyz
  1  x,y,z
loop_
 _atom_site_label
 _atom_site_occupancy
 _atom_site_fract_x
 _atom_site_fract_y
 _atom_site_fract_z
 _atom_site_thermal_displace_type
 _atom_site_B_iso_or_equiv
 _atom_site_type_symbol
Ge1 1.0000000000 0.2500000000 0.7394236331 0.6233672377  Biso 1.0 Ge
Ge2 1.0000000000 0.7500000000 0.7605763669 0.1233672377  Biso 1.0 Ge
Ge3 1.0000000000 0.7500000000 0.2605763669 0.3766327623  Biso 1.0 Ge
Ge4 1.0000000000 0.2500000000 0.2394236331 0.8766327623  Biso 1.0 Ge
Rh5 1.0000000000 0.2500000000 0.3562647066 0.5633633659  Biso 1.0 Rh
Rh6 1.0000000000 0.7500000000 0.1437352934 0.0633633659  Biso 1.0 Rh
Rh7 1.0000000000 0.7500000000 0.6437352934 0.4366366341  Biso 1.0 Rh
Rh8 1.0000000000 0.2500000000 0.8562647066 0.9366366341  Biso 1.0 Rh
Ta9 1.0000000000 0.2500000000 0.9722826689 0.3211838872  Biso 1.0 Ta
Ta10 1.0000000000 0.7500000000 0.5277173311 0.8211838872  Biso 1.0 Ta
Ta11 1.0000000000 0.7500000000 0.0277173311 0.6788161128  Biso 1.0 Ta
Ta12 1.0000000000 0.2500000000 0.4722826689 0.1788161128  Biso 1.0 Ta
