# AFLOW.org Repositories
# Ge1Rh1Sc1   [ORC,ORC,oP12] (STD_PRIM doi
data_Ge1Rh1Sc1
_pd_phase_name Ge1Rh1Sc1
_cell_length_a  4.1790523804
_cell_length_b  6.6294661592
_cell_length_c  7.4591275844
_cell_angle_alpha  90.0000000000
_cell_angle_beta  90.0000000000
_cell_angle_gamma  90.0000000000
_symmetry_space_group_name_H-M  'P1'
_symmetry_Int_Tables_Number  1
loop_
_symmetry_equiv_pos_site_id
_symmetry_equiv_pos_as_xyz
  1  x,y,z
loop_
 _atom_site_label
 _atom_site_occupancy
 _atom_site_fract_x
 _atom_site_fract_y
 _atom_site_fract_z
 _atom_site_thermal_displace_type
 _atom_site_B_iso_or_equiv
 _atom_site_type_symbol
Ge1 1.0000000000 0.2500000000 0.2811278195 0.6102503019  Biso 1.0 Ge
Ge2 1.0000000000 0.7500000000 0.2188721805 0.1102503019  Biso 1.0 Ge
Ge3 1.0000000000 0.7500000000 0.7188721805 0.3897496981  Biso 1.0 Ge
Ge4 1.0000000000 0.2500000000 0.7811278195 0.8897496981  Biso 1.0 Ge
Rh5 1.0000000000 0.2500000000 0.1578584286 0.9347585213  Biso 1.0 Rh
Rh6 1.0000000000 0.7500000000 0.3421415714 0.4347585213  Biso 1.0 Rh
Rh7 1.0000000000 0.7500000000 0.8421415714 0.0652414787  Biso 1.0 Rh
Rh8 1.0000000000 0.2500000000 0.6578584286 0.5652414787  Biso 1.0 Rh
Sc9 1.0000000000 0.2500000000 0.0095213911 0.3050178575  Biso 1.0 Sc
Sc10 1.0000000000 0.7500000000 0.4904786089 0.8050178575  Biso 1.0 Sc
Sc11 1.0000000000 0.7500000000 0.9904786089 0.6949821425  Biso 1.0 Sc
Sc12 1.0000000000 0.2500000000 0.5095213911 0.1949821425  Biso 1.0 Sc
