# AFLOW.org Repositories
# Ge1Rh1Zr1   [ORC,ORC,oP12] (STD_PRIM doi
data_Ge1Rh1Zr1
_pd_phase_name Ge1Rh1Zr1
_cell_length_a  4.0142198783
_cell_length_b  6.6545020903
_cell_length_c  7.6084452729
_cell_angle_alpha  90.0000000000
_cell_angle_beta  90.0000000000
_cell_angle_gamma  90.0000000000
_symmetry_space_group_name_H-M  'P1'
_symmetry_Int_Tables_Number  1
loop_
_symmetry_equiv_pos_site_id
_symmetry_equiv_pos_as_xyz
  1  x,y,z
loop_
 _atom_site_label
 _atom_site_occupancy
 _atom_site_fract_x
 _atom_site_fract_y
 _atom_site_fract_z
 _atom_site_thermal_displace_type
 _atom_site_B_iso_or_equiv
 _atom_site_type_symbol
Ge1 1.0000000000 0.2500000000 0.7657757649 0.3849114483  Biso 1.0 Ge
Ge2 1.0000000000 0.7500000000 0.7342242351 0.8849114483  Biso 1.0 Ge
Ge3 1.0000000000 0.7500000000 0.2342242351 0.6150885517  Biso 1.0 Ge
Ge4 1.0000000000 0.2500000000 0.2657757649 0.1150885517  Biso 1.0 Ge
Rh5 1.0000000000 0.2500000000 0.1443372958 0.4340091077  Biso 1.0 Rh
Rh6 1.0000000000 0.7500000000 0.3556627042 0.9340091077  Biso 1.0 Rh
Rh7 1.0000000000 0.7500000000 0.8556627042 0.5659908923  Biso 1.0 Rh
Rh8 1.0000000000 0.2500000000 0.6443372958 0.0659908923  Biso 1.0 Rh
Zr9 1.0000000000 0.2500000000 0.0210029810 0.8080520263  Biso 1.0 Zr
Zr10 1.0000000000 0.7500000000 0.4789970190 0.3080520263  Biso 1.0 Zr
Zr11 1.0000000000 0.7500000000 0.9789970190 0.1919479737  Biso 1.0 Zr
Zr12 1.0000000000 0.2500000000 0.5210029810 0.6919479737  Biso 1.0 Zr
