# AFLOW.org Repositories
# Ge1Sc1   [ORCC,ORCC,oS8] (STD_PRIM doi:1
data_Ge1Sc1
_pd_phase_name Ge1Sc1
_cell_length_a  5.5334714884
_cell_length_b  5.5334714884
_cell_length_c  3.8285657537
_cell_angle_alpha  90.0000000000
_cell_angle_beta  90.0000000000
_cell_angle_gamma  136.8599884198
_symmetry_space_group_name_H-M  'P1'
_symmetry_Int_Tables_Number  1
loop_
_symmetry_equiv_pos_site_id
_symmetry_equiv_pos_as_xyz
  1  x,y,z
loop_
 _atom_site_label
 _atom_site_occupancy
 _atom_site_fract_x
 _atom_site_fract_y
 _atom_site_fract_z
 _atom_site_thermal_displace_type
 _atom_site_B_iso_or_equiv
 _atom_site_type_symbol
Ge1 1.0000000000 0.5897158457 0.4102841543 0.7500000000  Biso 1.0 Ge
Ge2 1.0000000000 0.4102841543 0.5897158457 0.2500000000  Biso 1.0 Ge
Sc3 1.0000000000 0.8617148597 0.1382851403 0.7500000000  Biso 1.0 Sc
Sc4 1.0000000000 0.1382851403 0.8617148597 0.2500000000  Biso 1.0 Sc
