# AFLOW.org Repositories
# Ge1Y1   [ORCC,ORCC,oS8] (STD_PRIM doi:10
data_Ge1Y1
_pd_phase_name Ge1Y1
_cell_length_a  5.7949048905
_cell_length_b  5.7949048905
_cell_length_c  3.9689509954
_cell_angle_alpha  90.0000000000
_cell_angle_beta  90.0000000000
_cell_angle_gamma  136.4432573844
_symmetry_space_group_name_H-M  'P1'
_symmetry_Int_Tables_Number  1
loop_
_symmetry_equiv_pos_site_id
_symmetry_equiv_pos_as_xyz
  1  x,y,z
loop_
 _atom_site_label
 _atom_site_occupancy
 _atom_site_fract_x
 _atom_site_fract_y
 _atom_site_fract_z
 _atom_site_thermal_displace_type
 _atom_site_B_iso_or_equiv
 _atom_site_type_symbol
Ge1 1.0000000000 0.4156493740 0.5843506260 0.7500000000  Biso 1.0 Ge
Ge2 1.0000000000 0.5843506260 0.4156493740 0.2500000000  Biso 1.0 Ge
Y3 1.0000000000 0.1385506033 0.8614493967 0.7500000000  Biso 1.0 Y
Y4 1.0000000000 0.8614493967 0.1385506033 0.2500000000  Biso 1.0 Y
