# AFLOW.org Repositories
# Ge1Zr1   [ORC,ORC,oP8] (STD_PRIM doi:10.
data_Ge1Zr1
_pd_phase_name Ge1Zr1
_cell_length_a  3.9367256541
_cell_length_b  5.4368568227
_cell_length_c  7.1276506209
_cell_angle_alpha  90.0000000000
_cell_angle_beta  90.0000000000
_cell_angle_gamma  90.0000000000
_symmetry_space_group_name_H-M  'P1'
_symmetry_Int_Tables_Number  1
loop_
_symmetry_equiv_pos_site_id
_symmetry_equiv_pos_as_xyz
  1  x,y,z
loop_
 _atom_site_label
 _atom_site_occupancy
 _atom_site_fract_x
 _atom_site_fract_y
 _atom_site_fract_z
 _atom_site_thermal_displace_type
 _atom_site_B_iso_or_equiv
 _atom_site_type_symbol
Ge1 1.0000000000 0.7500000000 0.3470209652 0.0478138062  Biso 1.0 Ge
Ge2 1.0000000000 0.2500000000 0.8470209652 0.4521861938  Biso 1.0 Ge
Ge3 1.0000000000 0.2500000000 0.6529790348 0.9521861938  Biso 1.0 Ge
Ge4 1.0000000000 0.7500000000 0.1529790348 0.5478138062  Biso 1.0 Ge
Zr5 1.0000000000 0.7500000000 0.8685221543 0.1767627054  Biso 1.0 Zr
Zr6 1.0000000000 0.2500000000 0.3685221543 0.3232372946  Biso 1.0 Zr
Zr7 1.0000000000 0.2500000000 0.1314778457 0.8232372946  Biso 1.0 Zr
Zr8 1.0000000000 0.7500000000 0.6314778457 0.6767627054  Biso 1.0 Zr
