# AFLOW.org Repositories
# Ge2Ir2Th1   [TET,TET,tP10] (STD_PRIM doi
data_Ge2Ir2Th1
_pd_phase_name Ge2Ir2Th1
_cell_length_a  4.3029431826
_cell_length_b  4.3029431826
_cell_length_c  10.1697623276
_cell_angle_alpha  90.0000000000
_cell_angle_beta  90.0000000000
_cell_angle_gamma  90.0000000000
_symmetry_space_group_name_H-M  'P1'
_symmetry_Int_Tables_Number  1
loop_
_symmetry_equiv_pos_site_id
_symmetry_equiv_pos_as_xyz
  1  x,y,z
loop_
 _atom_site_label
 _atom_site_occupancy
 _atom_site_fract_x
 _atom_site_fract_y
 _atom_site_fract_z
 _atom_site_thermal_displace_type
 _atom_site_B_iso_or_equiv
 _atom_site_type_symbol
Ge1 1.0000000000 0.7500000000 0.2500000000 0.5000000000  Biso 1.0 Ge
Ge2 1.0000000000 0.2500000000 0.7500000000 0.5000000000  Biso 1.0 Ge
Ge3 1.0000000000 0.2500000000 0.2500000000 0.1321316409  Biso 1.0 Ge
Ge4 1.0000000000 0.7500000000 0.7500000000 0.8678683591  Biso 1.0 Ge
Ir5 1.0000000000 0.7500000000 0.2500000000 0.0000000000  Biso 1.0 Ir
Ir6 1.0000000000 0.2500000000 0.7500000000 0.0000000000  Biso 1.0 Ir
Ir7 1.0000000000 0.2500000000 0.2500000000 0.3753905425  Biso 1.0 Ir
Ir8 1.0000000000 0.7500000000 0.7500000000 0.6246094575  Biso 1.0 Ir
Th9 1.0000000000 0.2500000000 0.2500000000 0.7473404848  Biso 1.0 Th
Th10 1.0000000000 0.7500000000 0.7500000000 0.2526595152  Biso 1.0 Th
