# AFLOW.org Repositories
# Ge2La1Rh1   [ORCC,ORCC,oS16] (STD_PRIM d
data_Ge2La1Rh1
_pd_phase_name Ge2La1Rh1
_cell_length_a  8.9200059119
_cell_length_b  8.9200059119
_cell_length_c  4.3935910121
_cell_angle_alpha  90.0000000000
_cell_angle_beta  90.0000000000
_cell_angle_gamma  151.2250746931
_symmetry_space_group_name_H-M  'P1'
_symmetry_Int_Tables_Number  1
loop_
_symmetry_equiv_pos_site_id
_symmetry_equiv_pos_as_xyz
  1  x,y,z
loop_
 _atom_site_label
 _atom_site_occupancy
 _atom_site_fract_x
 _atom_site_fract_y
 _atom_site_fract_z
 _atom_site_thermal_displace_type
 _atom_site_B_iso_or_equiv
 _atom_site_type_symbol
Ge1 1.0000000000 0.5420716225 0.4579283775 0.7500000000  Biso 1.0 Ge
Ge2 1.0000000000 0.4579283775 0.5420716225 0.2500000000  Biso 1.0 Ge
Ge3 1.0000000000 0.2500545980 0.7499454020 0.7500000000  Biso 1.0 Ge
Ge4 1.0000000000 0.7499454020 0.2500545980 0.2500000000  Biso 1.0 Ge
La5 1.0000000000 0.8924849533 0.1075150467 0.7500000000  Biso 1.0 La
La6 1.0000000000 0.1075150467 0.8924849533 0.2500000000  Biso 1.0 La
Rh7 1.0000000000 0.6823526686 0.3176473314 0.7500000000  Biso 1.0 Rh
Rh8 1.0000000000 0.3176473314 0.6823526686 0.2500000000  Biso 1.0 Rh
