# AFLOW.org Repositories
# Ge2La1Li1   [ORC,ORC,oP16] (STD_PRIM doi
data_Ge2La1Li1
_pd_phase_name Ge2La1Li1
_cell_length_a  4.0445577687
_cell_length_b  7.8889410727
_cell_length_c  10.9601825762
_cell_angle_alpha  90.0000000000
_cell_angle_beta  90.0000000000
_cell_angle_gamma  90.0000000000
_symmetry_space_group_name_H-M  'P1'
_symmetry_Int_Tables_Number  1
loop_
_symmetry_equiv_pos_site_id
_symmetry_equiv_pos_as_xyz
  1  x,y,z
loop_
 _atom_site_label
 _atom_site_occupancy
 _atom_site_fract_x
 _atom_site_fract_y
 _atom_site_fract_z
 _atom_site_thermal_displace_type
 _atom_site_B_iso_or_equiv
 _atom_site_type_symbol
Ge1 1.0000000000 0.2500000000 0.2158924493 0.9309870389  Biso 1.0 Ge
Ge2 1.0000000000 0.7500000000 0.2841075507 0.4309870389  Biso 1.0 Ge
Ge3 1.0000000000 0.7500000000 0.7841075507 0.0690129611  Biso 1.0 Ge
Ge4 1.0000000000 0.2500000000 0.7158924493 0.5690129611  Biso 1.0 Ge
Ge5 1.0000000000 0.2500000000 0.1590174242 0.3183230806  Biso 1.0 Ge
Ge6 1.0000000000 0.7500000000 0.3409825758 0.8183230806  Biso 1.0 Ge
Ge7 1.0000000000 0.7500000000 0.8409825758 0.6816769194  Biso 1.0 Ge
Ge8 1.0000000000 0.2500000000 0.6590174242 0.1816769194  Biso 1.0 Ge
La9 1.0000000000 0.2500000000 0.1410312403 0.6335146561  Biso 1.0 La
La10 1.0000000000 0.7500000000 0.3589687597 0.1335146561  Biso 1.0 La
La11 1.0000000000 0.7500000000 0.8589687597 0.3664853439  Biso 1.0 La
La12 1.0000000000 0.2500000000 0.6410312403 0.8664853439  Biso 1.0 La
Li13 1.0000000000 0.2500000000 0.4933194258 0.3873630664  Biso 1.0 Li
Li14 1.0000000000 0.7500000000 0.0066805742 0.8873630664  Biso 1.0 Li
Li15 1.0000000000 0.7500000000 0.5066805742 0.6126369336  Biso 1.0 Li
Li16 1.0000000000 0.2500000000 0.9933194258 0.1126369336  Biso 1.0 Li
