# AFLOW.org Repositories
# Ge2N4Si1   [FCC,FCC,cF56] (STD_PRIM doi:
data_Ge2N4Si1
_pd_phase_name Ge2N4Si1
_cell_length_a  5.7547664976
_cell_length_b  5.7547664976
_cell_length_c  5.7547664976
_cell_angle_alpha  60.0000000000
_cell_angle_beta  60.0000000000
_cell_angle_gamma  60.0000000000
_symmetry_space_group_name_H-M  'P1'
_symmetry_Int_Tables_Number  1
loop_
_symmetry_equiv_pos_site_id
_symmetry_equiv_pos_as_xyz
  1  x,y,z
loop_
 _atom_site_label
 _atom_site_occupancy
 _atom_site_fract_x
 _atom_site_fract_y
 _atom_site_fract_z
 _atom_site_thermal_displace_type
 _atom_site_B_iso_or_equiv
 _atom_site_type_symbol
Ge1 1.0000000000 0.5000000000 0.5000000000 0.5000000000  Biso 1.0 Ge
Ge2 1.0000000000 0.5000000000 0.0000000000 0.5000000000  Biso 1.0 Ge
Ge3 1.0000000000 0.0000000000 0.0000000000 0.5000000000  Biso 1.0 Ge
Ge4 1.0000000000 0.5000000000 0.0000000000 0.0000000000  Biso 1.0 Ge
N5 1.0000000000 0.7467167353 0.7598497940 0.7467167353  Biso 1.0 N
N6 1.0000000000 0.7467167353 0.2467167353 0.7467167353  Biso 1.0 N
N7 1.0000000000 0.2598497940 0.2467167353 0.7467167353  Biso 1.0 N
N8 1.0000000000 0.7467167353 0.2467167353 0.2598497940  Biso 1.0 N
N9 1.0000000000 0.2532832647 0.7532832647 0.2532832647  Biso 1.0 N
N10 1.0000000000 0.2532832647 0.2401502060 0.2532832647  Biso 1.0 N
N11 1.0000000000 0.7401502060 0.7532832647 0.2532832647  Biso 1.0 N
N12 1.0000000000 0.2532832647 0.7532832647 0.7401502060  Biso 1.0 N
Si13 1.0000000000 0.8750000000 0.3750000000 0.8750000000  Biso 1.0 Si
Si14 1.0000000000 0.1250000000 0.6250000000 0.1250000000  Biso 1.0 Si
