# AFLOW.org Repositories
# Ge2Rh2Sr1   [BCT,BCT2,tI10] (STD_PRIM do
data_Ge2Rh2Sr1
_pd_phase_name Ge2Rh2Sr1
_cell_length_a  6.1682307282
_cell_length_b  6.1682307282
_cell_length_c  6.1682307282
_cell_angle_alpha  139.9346308738
_cell_angle_beta  139.9346308738
_cell_angle_gamma  57.9525657193
_symmetry_space_group_name_H-M  'P1'
_symmetry_Int_Tables_Number  1
loop_
_symmetry_equiv_pos_site_id
_symmetry_equiv_pos_as_xyz
  1  x,y,z
loop_
 _atom_site_label
 _atom_site_occupancy
 _atom_site_fract_x
 _atom_site_fract_y
 _atom_site_fract_z
 _atom_site_thermal_displace_type
 _atom_site_B_iso_or_equiv
 _atom_site_type_symbol
Ge1 1.0000000000 0.6323065869 0.6323065869 0.0000000000  Biso 1.0 Ge
Ge2 1.0000000000 0.3676934131 0.3676934131 0.0000000000  Biso 1.0 Ge
Rh3 1.0000000000 0.2500000000 0.7500000000 0.5000000000  Biso 1.0 Rh
Rh4 1.0000000000 0.7500000000 0.2500000000 0.5000000000  Biso 1.0 Rh
Sr5 1.0000000000 0.0000000000 0.0000000000 0.0000000000  Biso 1.0 Sr
