# AFLOW.org Repositories
# Ge2Th3   [TET,TET,tP10] (STD_PRIM doi:10
data_Ge2Th3
_pd_phase_name Ge2Th3
_cell_length_a  8.1432414310
_cell_length_b  8.1432414310
_cell_length_c  4.2598719683
_cell_angle_alpha  90.0000000000
_cell_angle_beta  90.0000000000
_cell_angle_gamma  90.0000000000
_symmetry_space_group_name_H-M  'P1'
_symmetry_Int_Tables_Number  1
loop_
_symmetry_equiv_pos_site_id
_symmetry_equiv_pos_as_xyz
  1  x,y,z
loop_
 _atom_site_label
 _atom_site_occupancy
 _atom_site_fract_x
 _atom_site_fract_y
 _atom_site_fract_z
 _atom_site_thermal_displace_type
 _atom_site_B_iso_or_equiv
 _atom_site_type_symbol
Ge1 1.0000000000 0.3807017841 0.8807017841 0.0000000000  Biso 1.0 Ge
Ge2 1.0000000000 0.6192982159 0.1192982159 0.0000000000  Biso 1.0 Ge
Ge3 1.0000000000 0.1192982159 0.3807017841 0.0000000000  Biso 1.0 Ge
Ge4 1.0000000000 0.8807017841 0.6192982159 0.0000000000  Biso 1.0 Ge
Th5 1.0000000000 0.0000000000 0.0000000000 0.0000000000  Biso 1.0 Th
Th6 1.0000000000 0.5000000000 0.5000000000 0.0000000000  Biso 1.0 Th
Th7 1.0000000000 0.1770513907 0.6770513907 0.5000000000  Biso 1.0 Th
Th8 1.0000000000 0.8229486093 0.3229486093 0.5000000000  Biso 1.0 Th
Th9 1.0000000000 0.3229486093 0.1770513907 0.5000000000  Biso 1.0 Th
Th10 1.0000000000 0.6770513907 0.8229486093 0.5000000000  Biso 1.0 Th
