# AFLOW.org Repositories
# Ge2Th1   [ORCC,ORCC,oS12] (STD_PRIM doi:
data_Ge2Th1
_pd_phase_name Ge2Th1
_cell_length_a  8.8303559546
_cell_length_b  8.8303559546
_cell_length_c  4.0717069024
_cell_angle_alpha  90.0000000000
_cell_angle_beta  90.0000000000
_cell_angle_gamma  152.3084441683
_symmetry_space_group_name_H-M  'P1'
_symmetry_Int_Tables_Number  1
loop_
_symmetry_equiv_pos_site_id
_symmetry_equiv_pos_as_xyz
  1  x,y,z
loop_
 _atom_site_label
 _atom_site_occupancy
 _atom_site_fract_x
 _atom_site_fract_y
 _atom_site_fract_z
 _atom_site_thermal_displace_type
 _atom_site_B_iso_or_equiv
 _atom_site_type_symbol
Ge1 1.0000000000 0.7489345956 0.2510654044 0.7500000000  Biso 1.0 Ge
Ge2 1.0000000000 0.2510654044 0.7489345956 0.2500000000  Biso 1.0 Ge
Ge3 1.0000000000 0.4508768593 0.5491231407 0.7500000000  Biso 1.0 Ge
Ge4 1.0000000000 0.5491231407 0.4508768593 0.2500000000  Biso 1.0 Ge
Th5 1.0000000000 0.1073721821 0.8926278179 0.7500000000  Biso 1.0 Th
Th6 1.0000000000 0.8926278179 0.1073721821 0.2500000000  Biso 1.0 Th
