# AFLOW.org Repositories
# Ge3Ir2Tb3   [ORCC,ORCC,oS32] (STD_PRIM d
data_Ge3Ir2Tb3
_pd_phase_name Ge3Ir2Tb3
_cell_length_a  5.6780072854
_cell_length_b  5.6780072854
_cell_length_c  14.3451067813
_cell_angle_alpha  90.0000000000
_cell_angle_beta  90.0000000000
_cell_angle_gamma  135.3640057319
_symmetry_space_group_name_H-M  'P1'
_symmetry_Int_Tables_Number  1
loop_
_symmetry_equiv_pos_site_id
_symmetry_equiv_pos_as_xyz
  1  x,y,z
loop_
 _atom_site_label
 _atom_site_occupancy
 _atom_site_fract_x
 _atom_site_fract_y
 _atom_site_fract_z
 _atom_site_thermal_displace_type
 _atom_site_B_iso_or_equiv
 _atom_site_type_symbol
Ge1 1.0000000000 0.6250476622 0.3749523378 0.9651177303  Biso 1.0 Ge
Ge2 1.0000000000 0.3749523378 0.6250476622 0.4651177303  Biso 1.0 Ge
Ge3 1.0000000000 0.6250476622 0.3749523378 0.5348822697  Biso 1.0 Ge
Ge4 1.0000000000 0.3749523378 0.6250476622 0.0348822697  Biso 1.0 Ge
Ge5 1.0000000000 0.3430682705 0.6569317295 0.7500000000  Biso 1.0 Ge
Ge6 1.0000000000 0.6569317295 0.3430682705 0.2500000000  Biso 1.0 Ge
Ir7 1.0000000000 0.7997261178 0.2002738822 0.3970831111  Biso 1.0 Ir
Ir8 1.0000000000 0.2002738822 0.7997261178 0.8970831111  Biso 1.0 Ir
Ir9 1.0000000000 0.7997261178 0.2002738822 0.1029168889  Biso 1.0 Ir
Ir10 1.0000000000 0.2002738822 0.7997261178 0.6029168889  Biso 1.0 Ir
Tb11 1.0000000000 0.9162367009 0.0837632991 0.8896670146  Biso 1.0 Tb
Tb12 1.0000000000 0.0837632991 0.9162367009 0.3896670146  Biso 1.0 Tb
Tb13 1.0000000000 0.9162367009 0.0837632991 0.6103329854  Biso 1.0 Tb
Tb14 1.0000000000 0.0837632991 0.9162367009 0.1103329854  Biso 1.0 Tb
Tb15 1.0000000000 0.6416696906 0.3583303094 0.7500000000  Biso 1.0 Tb
Tb16 1.0000000000 0.3583303094 0.6416696906 0.2500000000  Biso 1.0 Tb
