# AFLOW.org Repositories
# Ge3Ni1Y1   [ORCC,ORCC,oS20] (STD_PRIM do
data_Ge3Ni1Y1
_pd_phase_name Ge3Ni1Y1
_cell_length_a  11.0216509002
_cell_length_b  11.0216509002
_cell_length_c  4.0829120656
_cell_angle_alpha  90.0000000000
_cell_angle_beta  90.0000000000
_cell_angle_gamma  158.5875133376
_symmetry_space_group_name_H-M  'P1'
_symmetry_Int_Tables_Number  1
loop_
_symmetry_equiv_pos_site_id
_symmetry_equiv_pos_as_xyz
  1  x,y,z
loop_
 _atom_site_label
 _atom_site_occupancy
 _atom_site_fract_x
 _atom_site_fract_y
 _atom_site_fract_z
 _atom_site_thermal_displace_type
 _atom_site_B_iso_or_equiv
 _atom_site_type_symbol
Ge1 1.0000000000 0.7161512430 0.2838487570 0.0000000000  Biso 1.0 Ge
Ge2 1.0000000000 0.2838487570 0.7161512430 0.0000000000  Biso 1.0 Ge
Ge3 1.0000000000 0.5573366377 0.4426633623 0.5000000000  Biso 1.0 Ge
Ge4 1.0000000000 0.4426633623 0.5573366377 0.5000000000  Biso 1.0 Ge
Ge5 1.0000000000 0.9424965334 0.0575034666 0.0000000000  Biso 1.0 Ge
Ge6 1.0000000000 0.0575034666 0.9424965334 0.0000000000  Biso 1.0 Ge
Ni7 1.0000000000 0.6101465449 0.3898534551 0.0000000000  Biso 1.0 Ni
Ni8 1.0000000000 0.3898534551 0.6101465449 0.0000000000  Biso 1.0 Ni
Y9 1.0000000000 0.8308565509 0.1691434491 0.5000000000  Biso 1.0 Y
Y10 1.0000000000 0.1691434491 0.8308565509 0.5000000000  Biso 1.0 Y
