# AFLOW.org Repositories
# Ge3Rh5   [ORC,ORC,oP16] (STD_PRIM doi:10
data_Ge3Rh5
_pd_phase_name Ge3Rh5
_cell_length_a  3.9686779821
_cell_length_b  5.4995017560
_cell_length_c  10.5464662350
_cell_angle_alpha  90.0000000000
_cell_angle_beta  90.0000000000
_cell_angle_gamma  90.0000000000
_symmetry_space_group_name_H-M  'P1'
_symmetry_Int_Tables_Number  1
loop_
_symmetry_equiv_pos_site_id
_symmetry_equiv_pos_as_xyz
  1  x,y,z
loop_
 _atom_site_label
 _atom_site_occupancy
 _atom_site_fract_x
 _atom_site_fract_y
 _atom_site_fract_z
 _atom_site_thermal_displace_type
 _atom_site_B_iso_or_equiv
 _atom_site_type_symbol
Ge1 1.0000000000 0.0000000000 0.0000000000 0.0000000000  Biso 1.0 Ge
Ge2 1.0000000000 0.0000000000 0.5000000000 0.5000000000  Biso 1.0 Ge
Ge3 1.0000000000 0.5000000000 0.3981339645 0.8460211727  Biso 1.0 Ge
Ge4 1.0000000000 0.5000000000 0.6018660355 0.1539788273  Biso 1.0 Ge
Ge5 1.0000000000 0.5000000000 0.1018660355 0.3460211727  Biso 1.0 Ge
Ge6 1.0000000000 0.5000000000 0.8981339645 0.6539788273  Biso 1.0 Ge
Rh7 1.0000000000 0.0000000000 0.0000000000 0.5000000000  Biso 1.0 Rh
Rh8 1.0000000000 0.0000000000 0.5000000000 0.0000000000  Biso 1.0 Rh
Rh9 1.0000000000 0.0000000000 0.1491340486 0.7833585384  Biso 1.0 Rh
Rh10 1.0000000000 0.0000000000 0.8508659514 0.2166414616  Biso 1.0 Rh
Rh11 1.0000000000 0.0000000000 0.3508659514 0.2833585384  Biso 1.0 Rh
Rh12 1.0000000000 0.0000000000 0.6491340486 0.7166414616  Biso 1.0 Rh
Rh13 1.0000000000 0.5000000000 0.3315506514 0.6077442487  Biso 1.0 Rh
Rh14 1.0000000000 0.5000000000 0.6684493486 0.3922557513  Biso 1.0 Rh
Rh15 1.0000000000 0.5000000000 0.1684493486 0.1077442487  Biso 1.0 Rh
Rh16 1.0000000000 0.5000000000 0.8315506514 0.8922557513  Biso 1.0 Rh
