# AFLOW.org Repositories
# Ge3W5   [BCT,BCT1,tI32] (STD_PRIM doi:10
data_Ge3W5
_pd_phase_name Ge3W5
_cell_length_a  7.4634343556
_cell_length_b  7.4634343556
_cell_length_c  7.4634343556
_cell_angle_alpha  96.6936230055
_cell_angle_beta  96.6936230055
_cell_angle_gamma  140.0745011784
_symmetry_space_group_name_H-M  'P1'
_symmetry_Int_Tables_Number  1
loop_
_symmetry_equiv_pos_site_id
_symmetry_equiv_pos_as_xyz
  1  x,y,z
loop_
 _atom_site_label
 _atom_site_occupancy
 _atom_site_fract_x
 _atom_site_fract_y
 _atom_site_fract_z
 _atom_site_thermal_displace_type
 _atom_site_B_iso_or_equiv
 _atom_site_type_symbol
Ge1 1.0000000000 0.3304629603 0.1695370397 0.5000000000  Biso 1.0 Ge
Ge2 1.0000000000 0.6695370397 0.8304629603 0.5000000000  Biso 1.0 Ge
Ge3 1.0000000000 0.8304629603 0.3304629603 0.1609259207  Biso 1.0 Ge
Ge4 1.0000000000 0.1695370397 0.6695370397 0.8390740793  Biso 1.0 Ge
Ge5 1.0000000000 0.7500000000 0.7500000000 0.0000000000  Biso 1.0 Ge
Ge6 1.0000000000 0.2500000000 0.2500000000 0.0000000000  Biso 1.0 Ge
W7 1.0000000000 0.7698769704 0.0746930007 0.8445699711  Biso 1.0 W
W8 1.0000000000 0.2301230296 0.9253069993 0.1554300289  Biso 1.0 W
W9 1.0000000000 0.9253069993 0.7698769704 0.6951839697  Biso 1.0 W
W10 1.0000000000 0.0746930007 0.2301230296 0.3048160303  Biso 1.0 W
W11 1.0000000000 0.2698769704 0.4253069993 0.6951839697  Biso 1.0 W
W12 1.0000000000 0.7301230296 0.5746930007 0.3048160303  Biso 1.0 W
W13 1.0000000000 0.4253069993 0.7301230296 0.1554300289  Biso 1.0 W
W14 1.0000000000 0.5746930007 0.2698769704 0.8445699711  Biso 1.0 W
W15 1.0000000000 0.2500000000 0.7500000000 0.5000000000  Biso 1.0 W
W16 1.0000000000 0.7500000000 0.2500000000 0.5000000000  Biso 1.0 W
