# AFLOW.org Repositories
# Ge6Ho2Ni1   [ORCC,ORCC,oS18] (STD_PRIM d
data_Ge6Ho2Ni1
_pd_phase_name Ge6Ho2Ni1
_cell_length_a  10.8632545565
_cell_length_b  10.8632545565
_cell_length_c  4.0522144590
_cell_angle_alpha  90.0000000000
_cell_angle_beta  90.0000000000
_cell_angle_gamma  158.9123997741
_symmetry_space_group_name_H-M  'P1'
_symmetry_Int_Tables_Number  1
loop_
_symmetry_equiv_pos_site_id
_symmetry_equiv_pos_as_xyz
  1  x,y,z
loop_
 _atom_site_label
 _atom_site_occupancy
 _atom_site_fract_x
 _atom_site_fract_y
 _atom_site_fract_z
 _atom_site_thermal_displace_type
 _atom_site_B_iso_or_equiv
 _atom_site_type_symbol
Ge1 1.0000000000 0.7254952923 0.2745047077 0.0000000000  Biso 1.0 Ge
Ge2 1.0000000000 0.6085055742 0.3914944258 0.0000000000  Biso 1.0 Ge
Ge3 1.0000000000 0.4635944917 0.5364055083 0.5000000000  Biso 1.0 Ge
Ge4 1.0000000000 0.8885061425 0.1114938575 0.5000000000  Biso 1.0 Ge
Ge5 1.0000000000 0.1055793780 0.8944206220 0.5000000000  Biso 1.0 Ge
Ge6 1.0000000000 0.2232371021 0.7767628979 0.5000000000  Biso 1.0 Ge
Ho7 1.0000000000 0.0027002487 0.9972997513 0.0000000000  Biso 1.0 Ho
Ho8 1.0000000000 0.3391832127 0.6608167873 0.0000000000  Biso 1.0 Ho
Ni9 1.0000000000 0.7811985579 0.2188014421 0.5000000000  Biso 1.0 Ni
