# AFLOW.org Repositories
# Ge8Na6Pt8   [BCC,BCC,cI22] (STD_PRIM doi
data_Ge8Na6Pt8
_pd_phase_name Ge8Na6Pt8
_cell_length_a  6.6664832419
_cell_length_b  6.6664832419
_cell_length_c  6.6664832419
_cell_angle_alpha  109.4712206345
_cell_angle_beta  109.4712206345
_cell_angle_gamma  109.4712206345
_symmetry_space_group_name_H-M  'P1'
_symmetry_Int_Tables_Number  1
loop_
_symmetry_equiv_pos_site_id
_symmetry_equiv_pos_as_xyz
  1  x,y,z
loop_
 _atom_site_label
 _atom_site_occupancy
 _atom_site_fract_x
 _atom_site_fract_y
 _atom_site_fract_z
 _atom_site_thermal_displace_type
 _atom_site_B_iso_or_equiv
 _atom_site_type_symbol
Ge1 1.0000000000 0.0000000000 0.6368145767 0.0000000000  Biso 1.0 Ge
Ge2 1.0000000000 0.0000000000 0.0000000000 0.6368145767  Biso 1.0 Ge
Ge3 1.0000000000 0.3631854233 0.3631854233 0.3631854233  Biso 1.0 Ge
Ge4 1.0000000000 0.6368145767 0.0000000000 0.0000000000  Biso 1.0 Ge
Na5 1.0000000000 0.5000000000 0.5000000000 0.0000000000  Biso 1.0 Na
Na6 1.0000000000 0.5000000000 0.0000000000 0.5000000000  Biso 1.0 Na
Na7 1.0000000000 0.0000000000 0.5000000000 0.5000000000  Biso 1.0 Na
Pt8 1.0000000000 0.0000000000 0.2815782775 0.0000000000  Biso 1.0 Pt
Pt9 1.0000000000 0.0000000000 0.0000000000 0.2815782775  Biso 1.0 Pt
Pt10 1.0000000000 0.7184217225 0.7184217225 0.7184217225  Biso 1.0 Pt
Pt11 1.0000000000 0.2815782775 0.0000000000 0.0000000000  Biso 1.0 Pt
