# AFLOW.org Repositories
# H1W1   [HEX,HEX,hP4] (STD_PRIM doi:10.10
data_H1W1
_pd_phase_name H1W1
_cell_length_a  2.9599703045
_cell_length_b  2.9599703045
_cell_length_c  4.7792131205
_cell_angle_alpha  90.0000000000
_cell_angle_beta  90.0000000000
_cell_angle_gamma  120.0000000000
_symmetry_space_group_name_H-M  'P1'
_symmetry_Int_Tables_Number  1
loop_
_symmetry_equiv_pos_site_id
_symmetry_equiv_pos_as_xyz
  1  x,y,z
loop_
 _atom_site_label
 _atom_site_occupancy
 _atom_site_fract_x
 _atom_site_fract_y
 _atom_site_fract_z
 _atom_site_thermal_displace_type
 _atom_site_B_iso_or_equiv
 _atom_site_type_symbol
H1 1.0000000000 0.0000000000 0.0000000000 0.5000000000  Biso 1.0 H
H2 1.0000000000 0.0000000000 0.0000000000 0.0000000000  Biso 1.0 H
W3 1.0000000000 0.3333309277 0.6666618555 0.2500000000  Biso 1.0 W
W4 1.0000000000 0.6666690723 0.3333381445 0.7500000000  Biso 1.0 W
