# AFLOW.org Repositories
# H2.25La1   [BCT,BCT2,tI26] (STD_PRIM doi
data_H2.25La1
_pd_phase_name H2.25La1
_cell_length_a  6.9448432767
_cell_length_b  6.9448432767
_cell_length_c  6.9448432767
_cell_angle_alpha  132.0546876980
_cell_angle_beta  132.0546876980
_cell_angle_gamma  70.1426673201
_symmetry_space_group_name_H-M  'P1'
_symmetry_Int_Tables_Number  1
loop_
_symmetry_equiv_pos_site_id
_symmetry_equiv_pos_as_xyz
  1  x,y,z
loop_
 _atom_site_label
 _atom_site_occupancy
 _atom_site_fract_x
 _atom_site_fract_y
 _atom_site_fract_z
 _atom_site_thermal_displace_type
 _atom_site_B_iso_or_equiv
 _atom_site_type_symbol
H1 1.0000000000 0.6145117633 0.1319773949 0.0000000000  Biso 1.0 H
H2 1.0000000000 0.1319773949 0.6145117633 0.0000000000  Biso 1.0 H
H3 1.0000000000 0.6145117633 0.6145117633 0.4825343684  Biso 1.0 H
H4 1.0000000000 0.1319773949 0.1319773949 0.5174656316  Biso 1.0 H
H5 1.0000000000 0.8680226051 0.8680226051 0.4825343684  Biso 1.0 H
H6 1.0000000000 0.3854882367 0.3854882367 0.5174656316  Biso 1.0 H
H7 1.0000000000 0.8680226051 0.3854882367 0.0000000000  Biso 1.0 H
H8 1.0000000000 0.3854882367 0.8680226051 0.0000000000  Biso 1.0 H
H9 1.0000000000 0.0000000000 0.0000000000 0.0000000000  Biso 1.0 H
La10 1.0000000000 0.7542438365 0.7542438365 0.0000000000  Biso 1.0 La
La11 1.0000000000 0.2457561635 0.2457561635 0.0000000000  Biso 1.0 La
La12 1.0000000000 0.0000000000 0.5000000000 0.5000000000  Biso 1.0 La
La13 1.0000000000 0.5000000000 0.0000000000 0.5000000000  Biso 1.0 La
