# AFLOW.org Repositories
# H2Mg1   [ORC,ORC,oP12] (STD_PRIM doi:10.
data_H2Mg1
_pd_phase_name H2Mg1
_cell_length_a  3.1007531726
_cell_length_b  5.2711556641
_cell_length_c  5.9645174023
_cell_angle_alpha  90.0000000000
_cell_angle_beta  90.0000000000
_cell_angle_gamma  90.0000000000
_symmetry_space_group_name_H-M  'P1'
_symmetry_Int_Tables_Number  1
loop_
_symmetry_equiv_pos_site_id
_symmetry_equiv_pos_as_xyz
  1  x,y,z
loop_
 _atom_site_label
 _atom_site_occupancy
 _atom_site_fract_x
 _atom_site_fract_y
 _atom_site_fract_z
 _atom_site_thermal_displace_type
 _atom_site_B_iso_or_equiv
 _atom_site_type_symbol
H1 1.0000000000 0.2500000000 0.3607716695 0.5744617842  Biso 1.0 H
H2 1.0000000000 0.7500000000 0.1392283305 0.0744617842  Biso 1.0 H
H3 1.0000000000 0.7500000000 0.6392283305 0.4255382158  Biso 1.0 H
H4 1.0000000000 0.2500000000 0.8607716695 0.9255382158  Biso 1.0 H
H5 1.0000000000 0.2500000000 0.9769174790 0.3318248206  Biso 1.0 H
H6 1.0000000000 0.7500000000 0.5230825210 0.8318248206  Biso 1.0 H
H7 1.0000000000 0.7500000000 0.0230825210 0.6681751794  Biso 1.0 H
H8 1.0000000000 0.2500000000 0.4769174790 0.1681751794  Biso 1.0 H
Mg9 1.0000000000 0.2500000000 0.2478365838 0.8968186398  Biso 1.0 Mg
Mg10 1.0000000000 0.7500000000 0.2521634162 0.3968186398  Biso 1.0 Mg
Mg11 1.0000000000 0.7500000000 0.7521634162 0.1031813602  Biso 1.0 Mg
Mg12 1.0000000000 0.2500000000 0.7478365838 0.6031813602  Biso 1.0 Mg
