# AFLOW.org Repositories
# H3Pd1Ti2   [TET,TET,tP12] (STD_PRIM doi:
data_H3Pd1Ti2
_pd_phase_name H3Pd1Ti2
_cell_length_a  2.9513906820
_cell_length_b  2.9513906820
_cell_length_c  13.0663944649
_cell_angle_alpha  90.0000000000
_cell_angle_beta  90.0000000000
_cell_angle_gamma  90.0000000000
_symmetry_space_group_name_H-M  'P1'
_symmetry_Int_Tables_Number  1
loop_
_symmetry_equiv_pos_site_id
_symmetry_equiv_pos_as_xyz
  1  x,y,z
loop_
 _atom_site_label
 _atom_site_occupancy
 _atom_site_fract_x
 _atom_site_fract_y
 _atom_site_fract_z
 _atom_site_thermal_displace_type
 _atom_site_B_iso_or_equiv
 _atom_site_type_symbol
H1 1.0000000000 0.0000000000 0.5000000000 0.2390899648  Biso 1.0 H
H2 1.0000000000 0.5000000000 0.0000000000 0.2390899648  Biso 1.0 H
H3 1.0000000000 0.5000000000 0.0000000000 0.7609071725  Biso 1.0 H
H4 1.0000000000 0.0000000000 0.5000000000 0.7609071725  Biso 1.0 H
H5 1.0000000000 0.5000000000 0.5000000000 0.3655768045  Biso 1.0 H
H6 1.0000000000 0.5000000000 0.5000000000 0.6343963613  Biso 1.0 H
Pd7 1.0000000000 0.0000000000 0.0000000000 0.0000000000  Biso 1.0 Pd
Pd8 1.0000000000 0.5000000000 0.5000000000 0.4999862685  Biso 1.0 Pd
Ti9 1.0000000000 0.0000000000 0.0000000000 0.3408697990  Biso 1.0 Ti
Ti10 1.0000000000 0.0000000000 0.0000000000 0.6591395190  Biso 1.0 Ti
Ti11 1.0000000000 0.5000000000 0.5000000000 0.8555755474  Biso 1.0 Ti
Ti12 1.0000000000 0.5000000000 0.5000000000 0.1443620378  Biso 1.0 Ti
