# AFLOW.org Repositories
# H5K3Zn1   [BCT,BCT2,tI36] (STD_PRIM doi:
data_H5K3Zn1
_pd_phase_name H5K3Zn1
_cell_length_a  7.6988583297
_cell_length_b  7.6988583297
_cell_length_c  7.6988583297
_cell_angle_alpha  121.7946361835
_cell_angle_beta  121.7946361835
_cell_angle_gamma  86.9187259530
_symmetry_space_group_name_H-M  'P1'
_symmetry_Int_Tables_Number  1
loop_
_symmetry_equiv_pos_site_id
_symmetry_equiv_pos_as_xyz
  1  x,y,z
loop_
 _atom_site_label
 _atom_site_occupancy
 _atom_site_fract_x
 _atom_site_fract_y
 _atom_site_fract_z
 _atom_site_thermal_displace_type
 _atom_site_B_iso_or_equiv
 _atom_site_type_symbol
H1 1.0000000000 0.2135286565 0.9639463256 0.5000000000  Biso 1.0 H
H2 1.0000000000 0.4639463256 0.7135286565 0.5000000000  Biso 1.0 H
H3 1.0000000000 0.7135286565 0.2135286565 0.2495823309  Biso 1.0 H
H4 1.0000000000 0.9639463256 0.4639463256 0.7504176691  Biso 1.0 H
H5 1.0000000000 0.0360536744 0.5360536744 0.2495823309  Biso 1.0 H
H6 1.0000000000 0.2864713435 0.7864713435 0.7504176691  Biso 1.0 H
H7 1.0000000000 0.5360536744 0.2864713435 0.5000000000  Biso 1.0 H
H8 1.0000000000 0.7864713435 0.0360536744 0.5000000000  Biso 1.0 H
H9 1.0000000000 0.0000000000 0.0000000000 0.0000000000  Biso 1.0 H
H10 1.0000000000 0.5000000000 0.5000000000 0.0000000000  Biso 1.0 H
K11 1.0000000000 0.8198745479 0.6801254521 0.5000000000  Biso 1.0 K
K12 1.0000000000 0.1801254521 0.3198745479 0.5000000000  Biso 1.0 K
K13 1.0000000000 0.3198745479 0.8198745479 0.1397490958  Biso 1.0 K
K14 1.0000000000 0.6801254521 0.1801254521 0.8602509042  Biso 1.0 K
K15 1.0000000000 0.7500000000 0.7500000000 0.0000000000  Biso 1.0 K
K16 1.0000000000 0.2500000000 0.2500000000 0.0000000000  Biso 1.0 K
Zn17 1.0000000000 0.2500000000 0.7500000000 0.5000000000  Biso 1.0 Zn
Zn18 1.0000000000 0.7500000000 0.2500000000 0.5000000000  Biso 1.0 Zn
