# AFLOW.org Repositories
# H5Rb3Zn1   [BCT,BCT2,tI36] (STD_PRIM doi
data_H5Rb3Zn1
_pd_phase_name H5Rb3Zn1
_cell_length_a  8.0606017603
_cell_length_b  8.0606017603
_cell_length_c  8.0606017603
_cell_angle_alpha  121.5596009206
_cell_angle_beta  121.5596009206
_cell_angle_gamma  87.3192725846
_symmetry_space_group_name_H-M  'P1'
_symmetry_Int_Tables_Number  1
loop_
_symmetry_equiv_pos_site_id
_symmetry_equiv_pos_as_xyz
  1  x,y,z
loop_
 _atom_site_label
 _atom_site_occupancy
 _atom_site_fract_x
 _atom_site_fract_y
 _atom_site_fract_z
 _atom_site_thermal_displace_type
 _atom_site_B_iso_or_equiv
 _atom_site_type_symbol
H1 1.0000000000 0.7853892875 0.2853892875 0.7402167505  Biso 1.0 H
H2 1.0000000000 0.5451725370 0.0451725370 0.2597832495  Biso 1.0 H
H3 1.0000000000 0.2853892875 0.5451725370 0.5000000000  Biso 1.0 H
H4 1.0000000000 0.0451725370 0.7853892875 0.5000000000  Biso 1.0 H
H5 1.0000000000 0.9548274630 0.2146107125 0.5000000000  Biso 1.0 H
H6 1.0000000000 0.7146107125 0.4548274630 0.5000000000  Biso 1.0 H
H7 1.0000000000 0.4548274630 0.9548274630 0.7402167505  Biso 1.0 H
H8 1.0000000000 0.2146107125 0.7146107125 0.2597832495  Biso 1.0 H
H9 1.0000000000 0.0000000000 0.0000000000 0.0000000000  Biso 1.0 H
H10 1.0000000000 0.5000000000 0.5000000000 0.0000000000  Biso 1.0 H
Rb11 1.0000000000 0.1801037847 0.6801037847 0.8602075695  Biso 1.0 Rb
Rb12 1.0000000000 0.8198962153 0.3198962153 0.1397924305  Biso 1.0 Rb
Rb13 1.0000000000 0.6801037847 0.8198962153 0.5000000000  Biso 1.0 Rb
Rb14 1.0000000000 0.3198962153 0.1801037847 0.5000000000  Biso 1.0 Rb
Rb15 1.0000000000 0.2500000000 0.2500000000 0.0000000000  Biso 1.0 Rb
Rb16 1.0000000000 0.7500000000 0.7500000000 0.0000000000  Biso 1.0 Rb
Zn17 1.0000000000 0.7500000000 0.2500000000 0.5000000000  Biso 1.0 Zn
Zn18 1.0000000000 0.2500000000 0.7500000000 0.5000000000  Biso 1.0 Zn
