# AFLOW.org Repositories
# H6Na2Pt1   [FCC,FCC,cF36] (STD_PRIM doi:
data_H6Na2Pt1
_pd_phase_name H6Na2Pt1
_cell_length_a  5.1740561787
_cell_length_b  5.1740561787
_cell_length_c  5.1740561787
_cell_angle_alpha  60.0000000000
_cell_angle_beta  60.0000000000
_cell_angle_gamma  60.0000000000
_symmetry_space_group_name_H-M  'P1'
_symmetry_Int_Tables_Number  1
loop_
_symmetry_equiv_pos_site_id
_symmetry_equiv_pos_as_xyz
  1  x,y,z
loop_
 _atom_site_label
 _atom_site_occupancy
 _atom_site_fract_x
 _atom_site_fract_y
 _atom_site_fract_z
 _atom_site_thermal_displace_type
 _atom_site_B_iso_or_equiv
 _atom_site_type_symbol
H1 1.0000000000 0.2244811492 0.7755188508 0.2244811492  Biso 1.0 H
H2 1.0000000000 0.7755188508 0.2244811492 0.7755188508  Biso 1.0 H
H3 1.0000000000 0.2244811492 0.2244811492 0.7755188508  Biso 1.0 H
H4 1.0000000000 0.7755188508 0.7755188508 0.2244811492  Biso 1.0 H
H5 1.0000000000 0.7755188508 0.2244811492 0.2244811492  Biso 1.0 H
H6 1.0000000000 0.2244811492 0.7755188508 0.7755188508  Biso 1.0 H
Na7 1.0000000000 0.2500000000 0.2500000000 0.2500000000  Biso 1.0 Na
Na8 1.0000000000 0.7500000000 0.7500000000 0.7500000000  Biso 1.0 Na
Pt9 1.0000000000 0.0000000000 0.0000000000 0.0000000000  Biso 1.0 Pt
