# AFLOW.org Repositories
# H6Os1Sr2   [FCC,FCC,cF36] (STD_PRIM doi:
data_H6Os1Sr2
_pd_phase_name H6Os1Sr2
_cell_length_a  5.3778151668
_cell_length_b  5.3778151668
_cell_length_c  5.3778151668
_cell_angle_alpha  60.0000000000
_cell_angle_beta  60.0000000000
_cell_angle_gamma  60.0000000000
_symmetry_space_group_name_H-M  'P1'
_symmetry_Int_Tables_Number  1
loop_
_symmetry_equiv_pos_site_id
_symmetry_equiv_pos_as_xyz
  1  x,y,z
loop_
 _atom_site_label
 _atom_site_occupancy
 _atom_site_fract_x
 _atom_site_fract_y
 _atom_site_fract_z
 _atom_site_thermal_displace_type
 _atom_site_B_iso_or_equiv
 _atom_site_type_symbol
H1 1.0000000000 0.2292448973 0.7707551027 0.2292448973  Biso 1.0 H
H2 1.0000000000 0.7707551027 0.2292448973 0.7707551027  Biso 1.0 H
H3 1.0000000000 0.2292448973 0.7707551027 0.7707551027  Biso 1.0 H
H4 1.0000000000 0.7707551027 0.2292448973 0.2292448973  Biso 1.0 H
H5 1.0000000000 0.2292448973 0.2292448973 0.7707551027  Biso 1.0 H
H6 1.0000000000 0.7707551027 0.7707551027 0.2292448973  Biso 1.0 H
Os7 1.0000000000 0.0000000000 0.0000000000 0.0000000000  Biso 1.0 Os
Sr8 1.0000000000 0.7500000000 0.7500000000 0.7500000000  Biso 1.0 Sr
Sr9 1.0000000000 0.2500000000 0.2500000000 0.2500000000  Biso 1.0 Sr
