# AFLOW.org Repositories
# He2Ne1   [HEX,HEX,hP12] (STD_PRIM doi:10
data_He2Ne1
_pd_phase_name He2Ne1
_cell_length_a  5.0852458290
_cell_length_b  5.0852458290
_cell_length_c  8.2740440657
_cell_angle_alpha  90.0000000000
_cell_angle_beta  90.0000000000
_cell_angle_gamma  120.0000000000
_symmetry_space_group_name_H-M  'P1'
_symmetry_Int_Tables_Number  1
loop_
_symmetry_equiv_pos_site_id
_symmetry_equiv_pos_as_xyz
  1  x,y,z
loop_
 _atom_site_label
 _atom_site_occupancy
 _atom_site_fract_x
 _atom_site_fract_y
 _atom_site_fract_z
 _atom_site_thermal_displace_type
 _atom_site_B_iso_or_equiv
 _atom_site_type_symbol
He1 1.0000000000 0.0000000000 0.0000000000 0.0000000000  Biso 1.0 He
He2 1.0000000000 0.0000000000 0.0000000000 0.5000000000  Biso 1.0 He
He3 1.0000000000 0.8306577665 0.1693637474 0.2500000000  Biso 1.0 He
He4 1.0000000000 0.8306577665 0.6612940191 0.2500000000  Biso 1.0 He
He5 1.0000000000 0.3387110649 0.1693555325 0.2500000000  Biso 1.0 He
He6 1.0000000000 0.1693422335 0.8306362526 0.7500000000  Biso 1.0 He
He7 1.0000000000 0.1693422335 0.3387059809 0.7500000000  Biso 1.0 He
He8 1.0000000000 0.6612889351 0.8306444675 0.7500000000  Biso 1.0 He
Ne9 1.0000000000 0.3333326869 0.6666663434 0.0633308399  Biso 1.0 Ne
Ne10 1.0000000000 0.6666673131 0.3333336566 0.5633308399  Biso 1.0 Ne
Ne11 1.0000000000 0.6666673131 0.3333336566 0.9366691601  Biso 1.0 Ne
Ne12 1.0000000000 0.3333326869 0.6666663434 0.4366691601  Biso 1.0 Ne
