# AFLOW.org Repositories
# Hf1Mo1P1   [HEX,HEX,hP9] (STD_PRIM doi:1
data_Hf1Mo1P1
_pd_phase_name Hf1Mo1P1
_cell_length_a  6.9450972460
_cell_length_b  6.9450972460
_cell_length_c  3.4185340364
_cell_angle_alpha  90.0000000000
_cell_angle_beta  90.0000000000
_cell_angle_gamma  120.0000000000
_symmetry_space_group_name_H-M  'P1'
_symmetry_Int_Tables_Number  1
loop_
_symmetry_equiv_pos_site_id
_symmetry_equiv_pos_as_xyz
  1  x,y,z
loop_
 _atom_site_label
 _atom_site_occupancy
 _atom_site_fract_x
 _atom_site_fract_y
 _atom_site_fract_z
 _atom_site_thermal_displace_type
 _atom_site_B_iso_or_equiv
 _atom_site_type_symbol
Hf1 1.0000000000 0.4020207745 0.4020207745 0.5000000000  Biso 1.0 Hf
Hf2 1.0000000000 0.5979780472 0.0000000000 0.5000000000  Biso 1.0 Hf
Hf3 1.0000000000 0.0000000000 0.5979841505 0.5000000000  Biso 1.0 Hf
Mo4 1.0000000000 0.7461144468 0.7461144468 0.0000000000  Biso 1.0 Mo
Mo5 1.0000000000 0.2538877619 0.0000000000 0.0000000000  Biso 1.0 Mo
Mo6 1.0000000000 0.0000000000 0.2538814578 0.0000000000  Biso 1.0 Mo
P7 1.0000000000 0.0000000000 0.0000000000 0.5000000000  Biso 1.0 P
P8 1.0000000000 0.3333330215 0.6666677195 0.0000000000  Biso 1.0 P
P9 1.0000000000 0.6666669785 0.3333346979 0.0000000000  Biso 1.0 P
