# AFLOW.org Repositories
# Hf1Ni1Si1   [ORC,ORC,oP12] (STD_PRIM doi
data_Hf1Ni1Si1
_pd_phase_name Hf1Ni1Si1
_cell_length_a  3.7851562934
_cell_length_b  6.4130969172
_cell_length_c  7.2043713956
_cell_angle_alpha  90.0000000000
_cell_angle_beta  90.0000000000
_cell_angle_gamma  90.0000000000
_symmetry_space_group_name_H-M  'P1'
_symmetry_Int_Tables_Number  1
loop_
_symmetry_equiv_pos_site_id
_symmetry_equiv_pos_as_xyz
  1  x,y,z
loop_
 _atom_site_label
 _atom_site_occupancy
 _atom_site_fract_x
 _atom_site_fract_y
 _atom_site_fract_z
 _atom_site_thermal_displace_type
 _atom_site_B_iso_or_equiv
 _atom_site_type_symbol
Hf1 1.0000000000 0.2500000000 0.0160171995 0.3131801321  Biso 1.0 Hf
Hf2 1.0000000000 0.7500000000 0.4839828005 0.8131801321  Biso 1.0 Hf
Hf3 1.0000000000 0.7500000000 0.9839828005 0.6868198679  Biso 1.0 Hf
Hf4 1.0000000000 0.2500000000 0.5160171995 0.1868198679  Biso 1.0 Hf
Ni5 1.0000000000 0.2500000000 0.1412663712 0.9379350072  Biso 1.0 Ni
Ni6 1.0000000000 0.7500000000 0.3587336288 0.4379350072  Biso 1.0 Ni
Ni7 1.0000000000 0.7500000000 0.8587336288 0.0620649928  Biso 1.0 Ni
Ni8 1.0000000000 0.2500000000 0.6412663712 0.5620649928  Biso 1.0 Ni
Si9 1.0000000000 0.2500000000 0.2727522217 0.6132908199  Biso 1.0 Si
Si10 1.0000000000 0.7500000000 0.2272477783 0.1132908199  Biso 1.0 Si
Si11 1.0000000000 0.7500000000 0.7272477783 0.3867091801  Biso 1.0 Si
Si12 1.0000000000 0.2500000000 0.7727522217 0.8867091801  Biso 1.0 Si
