# AFLOW.org Repositories
# Hf1N2   [HEX,HEX,hP6] (STD_PRIM doi:10.1
data_Hf1N2
_pd_phase_name Hf1N2
_cell_length_a  3.2603464324
_cell_length_b  3.2603464324
_cell_length_c  7.5991080838
_cell_angle_alpha  90.0000000000
_cell_angle_beta  90.0000000000
_cell_angle_gamma  120.0000000000
_symmetry_space_group_name_H-M  'P1'
_symmetry_Int_Tables_Number  1
loop_
_symmetry_equiv_pos_site_id
_symmetry_equiv_pos_as_xyz
  1  x,y,z
loop_
 _atom_site_label
 _atom_site_occupancy
 _atom_site_fract_x
 _atom_site_fract_y
 _atom_site_fract_z
 _atom_site_thermal_displace_type
 _atom_site_B_iso_or_equiv
 _atom_site_type_symbol
Hf1 1.0000000000 0.3333151366 0.6666302732 0.2500000000  Biso 1.0 Hf
Hf2 1.0000000000 0.6666848634 0.3333697268 0.7500000000  Biso 1.0 Hf
N3 1.0000000000 0.0000000000 0.0000000000 0.0940485013  Biso 1.0 N
N4 1.0000000000 0.0000000000 0.0000000000 0.5940485013  Biso 1.0 N
N5 1.0000000000 0.0000000000 0.0000000000 0.9059514987  Biso 1.0 N
N6 1.0000000000 0.0000000000 0.0000000000 0.4059514987  Biso 1.0 N
