# AFLOW.org Repositories
# Hf1O7V2   [CUB,CUB,cP40] (STD_PRIM doi:1
data_Hf1O7V2
_pd_phase_name Hf1O7V2
_cell_length_a  8.9748717787
_cell_length_b  8.9748717787
_cell_length_c  8.9748717787
_cell_angle_alpha  90.0000000000
_cell_angle_beta  90.0000000000
_cell_angle_gamma  90.0000000000
_symmetry_space_group_name_H-M  'P1'
_symmetry_Int_Tables_Number  1
loop_
_symmetry_equiv_pos_site_id
_symmetry_equiv_pos_as_xyz
  1  x,y,z
loop_
 _atom_site_label
 _atom_site_occupancy
 _atom_site_fract_x
 _atom_site_fract_y
 _atom_site_fract_z
 _atom_site_thermal_displace_type
 _atom_site_B_iso_or_equiv
 _atom_site_type_symbol
Hf1 1.0000000000 0.0000000000 0.0000000000 0.0000000000  Biso 1.0 Hf
Hf2 1.0000000000 0.5000000000 0.0000000000 0.5000000000  Biso 1.0 Hf
Hf3 1.0000000000 0.0000000000 0.5000000000 0.5000000000  Biso 1.0 Hf
Hf4 1.0000000000 0.5000000000 0.5000000000 0.0000000000  Biso 1.0 Hf
O5 1.0000000000 0.5632825658 0.7977722530 0.4082485869  Biso 1.0 O
O6 1.0000000000 0.9367174342 0.2022277470 0.9082485869  Biso 1.0 O
O7 1.0000000000 0.4367174342 0.2977722530 0.0917514131  Biso 1.0 O
O8 1.0000000000 0.0632825658 0.7022277470 0.5917514131  Biso 1.0 O
O9 1.0000000000 0.5917514131 0.5632825658 0.2022277470  Biso 1.0 O
O10 1.0000000000 0.0917514131 0.9367174342 0.7977722530  Biso 1.0 O
O11 1.0000000000 0.9082485869 0.4367174342 0.7022277470  Biso 1.0 O
O12 1.0000000000 0.4082485869 0.0632825658 0.2977722530  Biso 1.0 O
O13 1.0000000000 0.7977722530 0.5917514131 0.4367174342  Biso 1.0 O
O14 1.0000000000 0.2022277470 0.0917514131 0.0632825658  Biso 1.0 O
O15 1.0000000000 0.2977722530 0.9082485869 0.5632825658  Biso 1.0 O
O16 1.0000000000 0.7022277470 0.4082485869 0.9367174342  Biso 1.0 O
O17 1.0000000000 0.4367174342 0.2022277470 0.5917514131  Biso 1.0 O
O18 1.0000000000 0.0632825658 0.7977722530 0.0917514131  Biso 1.0 O
O19 1.0000000000 0.5632825658 0.7022277470 0.9082485869  Biso 1.0 O
O20 1.0000000000 0.9367174342 0.2977722530 0.4082485869  Biso 1.0 O
O21 1.0000000000 0.4082485869 0.4367174342 0.7977722530  Biso 1.0 O
O22 1.0000000000 0.9082485869 0.0632825658 0.2022277470  Biso 1.0 O
O23 1.0000000000 0.0917514131 0.5632825658 0.2977722530  Biso 1.0 O
O24 1.0000000000 0.5917514131 0.9367174342 0.7022277470  Biso 1.0 O
O25 1.0000000000 0.2022277470 0.4082485869 0.5632825658  Biso 1.0 O
O26 1.0000000000 0.7977722530 0.9082485869 0.9367174342  Biso 1.0 O
O27 1.0000000000 0.7022277470 0.0917514131 0.4367174342  Biso 1.0 O
O28 1.0000000000 0.2977722530 0.5917514131 0.0632825658  Biso 1.0 O
O29 1.0000000000 0.5000000000 0.5000000000 0.5000000000  Biso 1.0 O
O30 1.0000000000 0.0000000000 0.5000000000 0.0000000000  Biso 1.0 O
O31 1.0000000000 0.5000000000 0.0000000000 0.0000000000  Biso 1.0 O
O32 1.0000000000 0.0000000000 0.0000000000 0.5000000000  Biso 1.0 O
V33 1.0000000000 0.6150928136 0.6150928136 0.3849071864  Biso 1.0 V
V34 1.0000000000 0.8849071864 0.3849071864 0.8849071864  Biso 1.0 V
V35 1.0000000000 0.3849071864 0.1150928136 0.1150928136  Biso 1.0 V
V36 1.0000000000 0.1150928136 0.8849071864 0.6150928136  Biso 1.0 V
V37 1.0000000000 0.3849071864 0.3849071864 0.6150928136  Biso 1.0 V
V38 1.0000000000 0.1150928136 0.6150928136 0.1150928136  Biso 1.0 V
V39 1.0000000000 0.6150928136 0.8849071864 0.8849071864  Biso 1.0 V
V40 1.0000000000 0.8849071864 0.1150928136 0.3849071864  Biso 1.0 V
