# AFLOW.org Repositories
# Hf1O1S1   [CUB,CUB,cP12] (STD_PRIM doi:1
data_Hf1O1S1
_pd_phase_name Hf1O1S1
_cell_length_a  5.7023043822
_cell_length_b  5.7023043822
_cell_length_c  5.7023043822
_cell_angle_alpha  90.0000000000
_cell_angle_beta  90.0000000000
_cell_angle_gamma  90.0000000000
_symmetry_space_group_name_H-M  'P1'
_symmetry_Int_Tables_Number  1
loop_
_symmetry_equiv_pos_site_id
_symmetry_equiv_pos_as_xyz
  1  x,y,z
loop_
 _atom_site_label
 _atom_site_occupancy
 _atom_site_fract_x
 _atom_site_fract_y
 _atom_site_fract_z
 _atom_site_thermal_displace_type
 _atom_site_B_iso_or_equiv
 _atom_site_type_symbol
Hf1 1.0000000000 0.6796770144 0.6796770144 0.3203229856  Biso 1.0 Hf
Hf2 1.0000000000 0.8203229856 0.3203229856 0.8203229856  Biso 1.0 Hf
Hf3 1.0000000000 0.3203229856 0.1796770144 0.1796770144  Biso 1.0 Hf
Hf4 1.0000000000 0.1796770144 0.8203229856 0.6796770144  Biso 1.0 Hf
O5 1.0000000000 0.0951550926 0.0951550926 0.9048449074  Biso 1.0 O
O6 1.0000000000 0.4048449074 0.9048449074 0.4048449074  Biso 1.0 O
O7 1.0000000000 0.9048449074 0.5951550926 0.5951550926  Biso 1.0 O
O8 1.0000000000 0.5951550926 0.4048449074 0.0951550926  Biso 1.0 O
S9 1.0000000000 0.4188865593 0.4188865593 0.5811134407  Biso 1.0 S
S10 1.0000000000 0.0811134407 0.5811134407 0.0811134407  Biso 1.0 S
S11 1.0000000000 0.5811134407 0.9188865593 0.9188865593  Biso 1.0 S
S12 1.0000000000 0.9188865593 0.0811134407 0.4188865593  Biso 1.0 S
