# AFLOW.org Repositories
# Hf1O3Sr1   [ORCC,ORCC,oS40] (STD_PRIM do
data_Hf1O3Sr1
_pd_phase_name Hf1O3Sr1
_cell_length_a  5.8150750590
_cell_length_b  5.8150750590
_cell_length_c  8.2238887696
_cell_angle_alpha  90.0000000000
_cell_angle_beta  90.0000000000
_cell_angle_gamma  90.6084113755
_symmetry_space_group_name_H-M  'P1'
_symmetry_Int_Tables_Number  1
loop_
_symmetry_equiv_pos_site_id
_symmetry_equiv_pos_as_xyz
  1  x,y,z
loop_
 _atom_site_label
 _atom_site_occupancy
 _atom_site_fract_x
 _atom_site_fract_y
 _atom_site_fract_z
 _atom_site_thermal_displace_type
 _atom_site_B_iso_or_equiv
 _atom_site_type_symbol
Hf1 1.0000000000 0.0000000000 0.5000000000 0.0000000000  Biso 1.0 Hf
Hf2 1.0000000000 0.0000000000 0.5000000000 0.5000000000  Biso 1.0 Hf
Hf3 1.0000000000 0.5000000000 0.0000000000 0.5000000000  Biso 1.0 Hf
Hf4 1.0000000000 0.5000000000 0.0000000000 0.0000000000  Biso 1.0 Hf
O5 1.0000000000 0.7158021333 0.7158021333 0.0000000000  Biso 1.0 O
O6 1.0000000000 0.2841978667 0.2841978667 0.5000000000  Biso 1.0 O
O7 1.0000000000 0.2841978667 0.2841978667 0.0000000000  Biso 1.0 O
O8 1.0000000000 0.7158021333 0.7158021333 0.5000000000  Biso 1.0 O
O9 1.0000000000 0.2181824745 0.7818175255 0.0428154104  Biso 1.0 O
O10 1.0000000000 0.7818175255 0.2181824745 0.5428154104  Biso 1.0 O
O11 1.0000000000 0.2181824745 0.7818175255 0.4571845896  Biso 1.0 O
O12 1.0000000000 0.7818175255 0.2181824745 0.9571845896  Biso 1.0 O
O13 1.0000000000 0.9600331681 0.4519100868 0.2500000000  Biso 1.0 O
O14 1.0000000000 0.0399668319 0.5480899132 0.7500000000  Biso 1.0 O
O15 1.0000000000 0.5480899132 0.0399668319 0.2500000000  Biso 1.0 O
O16 1.0000000000 0.4519100868 0.9600331681 0.7500000000  Biso 1.0 O
Sr17 1.0000000000 0.9904181092 0.0095818908 0.2500000000  Biso 1.0 Sr
Sr18 1.0000000000 0.0095818908 0.9904181092 0.7500000000  Biso 1.0 Sr
Sr19 1.0000000000 0.4937649471 0.5062350529 0.2500000000  Biso 1.0 Sr
Sr20 1.0000000000 0.5062350529 0.4937649471 0.7500000000  Biso 1.0 Sr
