# AFLOW.org Repositories
# Hf1O4Si1   [BCT,BCT1,tI24] (STD_PRIM doi
data_Hf1O4Si1
_pd_phase_name Hf1O4Si1
_cell_length_a  5.5648567182
_cell_length_b  5.5648567182
_cell_length_c  5.5648567182
_cell_angle_alpha  106.9235149308
_cell_angle_beta  106.9235149308
_cell_angle_gamma  114.6964185827
_symmetry_space_group_name_H-M  'P1'
_symmetry_Int_Tables_Number  1
loop_
_symmetry_equiv_pos_site_id
_symmetry_equiv_pos_as_xyz
  1  x,y,z
loop_
 _atom_site_label
 _atom_site_occupancy
 _atom_site_fract_x
 _atom_site_fract_y
 _atom_site_fract_z
 _atom_site_thermal_displace_type
 _atom_site_B_iso_or_equiv
 _atom_site_type_symbol
Hf1 1.0000000000 0.1250000000 0.3750000000 0.2500000000  Biso 1.0 Hf
Hf2 1.0000000000 0.8750000000 0.6250000000 0.7500000000  Biso 1.0 Hf
O3 1.0000000000 0.1933303879 0.1277723743 0.9344419864  Biso 1.0 O
O4 1.0000000000 0.1933303879 0.7588884016 0.5655580136  Biso 1.0 O
O5 1.0000000000 0.6277723743 0.6933303879 0.4344419864  Biso 1.0 O
O6 1.0000000000 0.2588884016 0.6933303879 0.0655580136  Biso 1.0 O
O7 1.0000000000 0.8066696121 0.2411115984 0.4344419864  Biso 1.0 O
O8 1.0000000000 0.8066696121 0.8722276257 0.0655580136  Biso 1.0 O
O9 1.0000000000 0.3722276257 0.3066696121 0.5655580136  Biso 1.0 O
O10 1.0000000000 0.7411115984 0.3066696121 0.9344419864  Biso 1.0 O
Si11 1.0000000000 0.3750000000 0.1250000000 0.7500000000  Biso 1.0 Si
Si12 1.0000000000 0.6250000000 0.8750000000 0.2500000000  Biso 1.0 Si
