# AFLOW.org Repositories
# Hf1Pb1S3   [ORC,ORC,oP20] (STD_PRIM doi:
data_Hf1Pb1S3
_pd_phase_name Hf1Pb1S3
_cell_length_a  3.7759688800
_cell_length_b  9.2019916980
_cell_length_c  14.1739880509
_cell_angle_alpha  90.0000000000
_cell_angle_beta  90.0000000000
_cell_angle_gamma  90.0000000000
_symmetry_space_group_name_H-M  'P1'
_symmetry_Int_Tables_Number  1
loop_
_symmetry_equiv_pos_site_id
_symmetry_equiv_pos_as_xyz
  1  x,y,z
loop_
 _atom_site_label
 _atom_site_occupancy
 _atom_site_fract_x
 _atom_site_fract_y
 _atom_site_fract_z
 _atom_site_thermal_displace_type
 _atom_site_B_iso_or_equiv
 _atom_site_type_symbol
Hf1 1.0000000000 0.2500000000 0.1634742830 0.9508772055  Biso 1.0 Hf
Hf2 1.0000000000 0.7500000000 0.3365257170 0.4508772055  Biso 1.0 Hf
Hf3 1.0000000000 0.7500000000 0.8365257170 0.0491227945  Biso 1.0 Hf
Hf4 1.0000000000 0.2500000000 0.6634742830 0.5491227945  Biso 1.0 Hf
Pb5 1.0000000000 0.2500000000 0.5250742715 0.1713632672  Biso 1.0 Pb
Pb6 1.0000000000 0.7500000000 0.9749257285 0.6713632672  Biso 1.0 Pb
Pb7 1.0000000000 0.7500000000 0.4749257285 0.8286367328  Biso 1.0 Pb
Pb8 1.0000000000 0.2500000000 0.0250742715 0.3286367328  Biso 1.0 Pb
S9 1.0000000000 0.2500000000 0.2684687668 0.7878518784  Biso 1.0 S
S10 1.0000000000 0.7500000000 0.2315312332 0.2878518784  Biso 1.0 S
S11 1.0000000000 0.7500000000 0.7315312332 0.2121481216  Biso 1.0 S
S12 1.0000000000 0.2500000000 0.7684687668 0.7121481216  Biso 1.0 S
S13 1.0000000000 0.2500000000 0.1728932109 0.5092162024  Biso 1.0 S
S14 1.0000000000 0.7500000000 0.3271067891 0.0092162024  Biso 1.0 S
S15 1.0000000000 0.7500000000 0.8271067891 0.4907837976  Biso 1.0 S
S16 1.0000000000 0.2500000000 0.6728932109 0.9907837976  Biso 1.0 S
S17 1.0000000000 0.2500000000 0.0107264063 0.1034821432  Biso 1.0 S
S18 1.0000000000 0.7500000000 0.4892735937 0.6034821432  Biso 1.0 S
S19 1.0000000000 0.7500000000 0.9892735937 0.8965178568  Biso 1.0 S
S20 1.0000000000 0.2500000000 0.5107264063 0.3965178568  Biso 1.0 S
