# AFLOW.org Repositories
# Hf1Rh1Si1   [ORC,ORC,oP12] (STD_PRIM doi
data_Hf1Rh1Si1
_pd_phase_name Hf1Rh1Si1
_cell_length_a  3.9061327347
_cell_length_b  6.5156226414
_cell_length_c  7.4310008119
_cell_angle_alpha  90.0000000000
_cell_angle_beta  90.0000000000
_cell_angle_gamma  90.0000000000
_symmetry_space_group_name_H-M  'P1'
_symmetry_Int_Tables_Number  1
loop_
_symmetry_equiv_pos_site_id
_symmetry_equiv_pos_as_xyz
  1  x,y,z
loop_
 _atom_site_label
 _atom_site_occupancy
 _atom_site_fract_x
 _atom_site_fract_y
 _atom_site_fract_z
 _atom_site_thermal_displace_type
 _atom_site_B_iso_or_equiv
 _atom_site_type_symbol
Hf1 1.0000000000 0.2500000000 0.0193630981 0.8135049003  Biso 1.0 Hf
Hf2 1.0000000000 0.7500000000 0.4806369019 0.3135049003  Biso 1.0 Hf
Hf3 1.0000000000 0.7500000000 0.9806369019 0.1864950997  Biso 1.0 Hf
Hf4 1.0000000000 0.2500000000 0.5193630981 0.6864950997  Biso 1.0 Hf
Rh5 1.0000000000 0.2500000000 0.1474181954 0.4326497890  Biso 1.0 Rh
Rh6 1.0000000000 0.7500000000 0.3525818046 0.9326497890  Biso 1.0 Rh
Rh7 1.0000000000 0.7500000000 0.8525818046 0.5673502110  Biso 1.0 Rh
Rh8 1.0000000000 0.2500000000 0.6474181954 0.0673502110  Biso 1.0 Rh
Si9 1.0000000000 0.2500000000 0.7722120337 0.3847099306  Biso 1.0 Si
Si10 1.0000000000 0.7500000000 0.7277879663 0.8847099306  Biso 1.0 Si
Si11 1.0000000000 0.7500000000 0.2277879663 0.6152900694  Biso 1.0 Si
Si12 1.0000000000 0.2500000000 0.2722120337 0.1152900694  Biso 1.0 Si
