# AFLOW.org Repositories
# Hf1Sb1   [ORCC,ORCC,oS24] (STD_PRIM doi:
data_Hf1Sb1
_pd_phase_name Hf1Sb1
_cell_length_a  5.5596425503
_cell_length_b  5.5596425503
_cell_length_c  14.0516992566
_cell_angle_alpha  90.0000000000
_cell_angle_beta  90.0000000000
_cell_angle_gamma  140.3591603833
_symmetry_space_group_name_H-M  'P1'
_symmetry_Int_Tables_Number  1
loop_
_symmetry_equiv_pos_site_id
_symmetry_equiv_pos_as_xyz
  1  x,y,z
loop_
 _atom_site_label
 _atom_site_occupancy
 _atom_site_fract_x
 _atom_site_fract_y
 _atom_site_fract_z
 _atom_site_thermal_displace_type
 _atom_site_B_iso_or_equiv
 _atom_site_type_symbol
Hf1 1.0000000000 0.0708940562 0.9291059438 0.8915261219  Biso 1.0 Hf
Hf2 1.0000000000 0.9291059438 0.0708940562 0.3915261219  Biso 1.0 Hf
Hf3 1.0000000000 0.0708940562 0.9291059438 0.6084738781  Biso 1.0 Hf
Hf4 1.0000000000 0.9291059438 0.0708940562 0.1084738781  Biso 1.0 Hf
Hf5 1.0000000000 0.3872165827 0.6127834173 0.7500000000  Biso 1.0 Hf
Hf6 1.0000000000 0.6127834173 0.3872165827 0.2500000000  Biso 1.0 Hf
Sb7 1.0000000000 0.3573785660 0.6426214340 0.9506711774  Biso 1.0 Sb
Sb8 1.0000000000 0.6426214340 0.3573785660 0.4506711774  Biso 1.0 Sb
Sb9 1.0000000000 0.3573785660 0.6426214340 0.5493288226  Biso 1.0 Sb
Sb10 1.0000000000 0.6426214340 0.3573785660 0.0493288226  Biso 1.0 Sb
Sb11 1.0000000000 0.6743470102 0.3256529898 0.7500000000  Biso 1.0 Sb
Sb12 1.0000000000 0.3256529898 0.6743470102 0.2500000000  Biso 1.0 Sb
