# AFLOW.org Repositories
# Hf2Ir1   [FCC,FCC,cF96] (STD_PRIM doi:10
data_Hf2Ir1
_pd_phase_name Hf2Ir1
_cell_length_a  8.7318126941
_cell_length_b  8.7318126941
_cell_length_c  8.7318126941
_cell_angle_alpha  60.0000000000
_cell_angle_beta  60.0000000000
_cell_angle_gamma  60.0000000000
_symmetry_space_group_name_H-M  'P1'
_symmetry_Int_Tables_Number  1
loop_
_symmetry_equiv_pos_site_id
_symmetry_equiv_pos_as_xyz
  1  x,y,z
loop_
 _atom_site_label
 _atom_site_occupancy
 _atom_site_fract_x
 _atom_site_fract_y
 _atom_site_fract_z
 _atom_site_thermal_displace_type
 _atom_site_B_iso_or_equiv
 _atom_site_type_symbol
Hf1 1.0000000000 0.0000000000 0.0000000000 0.0000000000  Biso 1.0 Hf
Hf2 1.0000000000 0.0000000000 0.0000000000 0.5000000000  Biso 1.0 Hf
Hf3 1.0000000000 0.5000000000 0.0000000000 0.5000000000  Biso 1.0 Hf
Hf4 1.0000000000 0.0000000000 0.5000000000 0.5000000000  Biso 1.0 Hf
Hf5 1.0000000000 0.4382849332 0.8117150668 0.3117150668  Biso 1.0 Hf
Hf6 1.0000000000 0.8117150668 0.4382849332 0.9382849332  Biso 1.0 Hf
Hf7 1.0000000000 0.8117150668 0.4382849332 0.3117150668  Biso 1.0 Hf
Hf8 1.0000000000 0.4382849332 0.8117150668 0.9382849332  Biso 1.0 Hf
Hf9 1.0000000000 0.4382849332 0.4382849332 0.3117150668  Biso 1.0 Hf
Hf10 1.0000000000 0.8117150668 0.8117150668 0.9382849332  Biso 1.0 Hf
Hf11 1.0000000000 0.5617150668 0.1882849332 0.0617150668  Biso 1.0 Hf
Hf12 1.0000000000 0.1882849332 0.5617150668 0.6882849332  Biso 1.0 Hf
Hf13 1.0000000000 0.1882849332 0.5617150668 0.0617150668  Biso 1.0 Hf
Hf14 1.0000000000 0.5617150668 0.1882849332 0.6882849332  Biso 1.0 Hf
Hf15 1.0000000000 0.5617150668 0.5617150668 0.6882849332  Biso 1.0 Hf
Hf16 1.0000000000 0.1882849332 0.1882849332 0.0617150668  Biso 1.0 Hf
Ir17 1.0000000000 0.2238408258 0.2238408258 0.3284775225  Biso 1.0 Ir
Ir18 1.0000000000 0.2238408258 0.2238408258 0.7238408258  Biso 1.0 Ir
Ir19 1.0000000000 0.8284775225 0.2238408258 0.7238408258  Biso 1.0 Ir
Ir20 1.0000000000 0.2238408258 0.8284775225 0.7238408258  Biso 1.0 Ir
Ir21 1.0000000000 0.7761591742 0.7761591742 0.2761591742  Biso 1.0 Ir
Ir22 1.0000000000 0.7761591742 0.7761591742 0.6715224775  Biso 1.0 Ir
Ir23 1.0000000000 0.1715224775 0.7761591742 0.2761591742  Biso 1.0 Ir
Ir24 1.0000000000 0.7761591742 0.1715224775 0.2761591742  Biso 1.0 Ir
