# AFLOW.org Repositories
# Hf2Ni3Si4   [ORCC,ORCC,oS36] (STD_PRIM d
data_Hf2Ni3Si4
_pd_phase_name Hf2Ni3Si4
_cell_length_a  7.2893236548
_cell_length_b  7.2893236548
_cell_length_c  6.8414380297
_cell_angle_alpha  90.0000000000
_cell_angle_beta  90.0000000000
_cell_angle_gamma  138.3462161857
_symmetry_space_group_name_H-M  'P1'
_symmetry_Int_Tables_Number  1
loop_
_symmetry_equiv_pos_site_id
_symmetry_equiv_pos_as_xyz
  1  x,y,z
loop_
 _atom_site_label
 _atom_site_occupancy
 _atom_site_fract_x
 _atom_site_fract_y
 _atom_site_fract_z
 _atom_site_thermal_displace_type
 _atom_site_B_iso_or_equiv
 _atom_site_type_symbol
Hf1 1.0000000000 0.8956336815 0.1043663185 0.4017029187  Biso 1.0 Hf
Hf2 1.0000000000 0.6043663185 0.3956336815 0.9017029187  Biso 1.0 Hf
Hf3 1.0000000000 0.3956336815 0.6043663185 0.0982970813  Biso 1.0 Hf
Hf4 1.0000000000 0.1043663185 0.8956336815 0.5982970813  Biso 1.0 Hf
Ni5 1.0000000000 0.0000000000 0.0000000000 0.0000000000  Biso 1.0 Ni
Ni6 1.0000000000 0.5000000000 0.5000000000 0.5000000000  Biso 1.0 Ni
Ni7 1.0000000000 0.5217340334 0.9782659666 0.7500000000  Biso 1.0 Ni
Ni8 1.0000000000 0.9782659666 0.5217340334 0.2500000000  Biso 1.0 Ni
Ni9 1.0000000000 0.4782659666 0.0217340334 0.2500000000  Biso 1.0 Ni
Ni10 1.0000000000 0.0217340334 0.4782659666 0.7500000000  Biso 1.0 Ni
Si11 1.0000000000 0.6891168977 0.8108831023 0.7500000000  Biso 1.0 Si
Si12 1.0000000000 0.8108831023 0.6891168977 0.2500000000  Biso 1.0 Si
Si13 1.0000000000 0.3108831023 0.1891168977 0.2500000000  Biso 1.0 Si
Si14 1.0000000000 0.1891168977 0.3108831023 0.7500000000  Biso 1.0 Si
Si15 1.0000000000 0.8179380143 0.1820619857 0.0225556751  Biso 1.0 Si
Si16 1.0000000000 0.6820619857 0.3179380143 0.5225556751  Biso 1.0 Si
Si17 1.0000000000 0.3179380143 0.6820619857 0.4774443249  Biso 1.0 Si
Si18 1.0000000000 0.1820619857 0.8179380143 0.9774443249  Biso 1.0 Si
