# AFLOW.org Repositories
# Hf2Pd1   [FCC,FCC,cF96] (STD_PRIM doi:10
data_Hf2Pd1
_pd_phase_name Hf2Pd1
_cell_length_a  8.7759586214
_cell_length_b  8.7759586214
_cell_length_c  8.7759586214
_cell_angle_alpha  60.0000000000
_cell_angle_beta  60.0000000000
_cell_angle_gamma  60.0000000000
_symmetry_space_group_name_H-M  'P1'
_symmetry_Int_Tables_Number  1
loop_
_symmetry_equiv_pos_site_id
_symmetry_equiv_pos_as_xyz
  1  x,y,z
loop_
 _atom_site_label
 _atom_site_occupancy
 _atom_site_fract_x
 _atom_site_fract_y
 _atom_site_fract_z
 _atom_site_thermal_displace_type
 _atom_site_B_iso_or_equiv
 _atom_site_type_symbol
Hf1 1.0000000000 0.0000000000 0.0000000000 0.0000000000  Biso 1.0 Hf
Hf2 1.0000000000 0.5000000000 0.5000000000 0.0000000000  Biso 1.0 Hf
Hf3 1.0000000000 0.5000000000 0.0000000000 0.5000000000  Biso 1.0 Hf
Hf4 1.0000000000 0.5000000000 0.0000000000 0.0000000000  Biso 1.0 Hf
Hf5 1.0000000000 0.3107732491 0.4392267509 0.4392267509  Biso 1.0 Hf
Hf6 1.0000000000 0.9392267509 0.8107732491 0.8107732491  Biso 1.0 Hf
Hf7 1.0000000000 0.3107732491 0.4392267509 0.8107732491  Biso 1.0 Hf
Hf8 1.0000000000 0.9392267509 0.8107732491 0.4392267509  Biso 1.0 Hf
Hf9 1.0000000000 0.3107732491 0.8107732491 0.4392267509  Biso 1.0 Hf
Hf10 1.0000000000 0.9392267509 0.4392267509 0.8107732491  Biso 1.0 Hf
Hf11 1.0000000000 0.0607732491 0.1892267509 0.5607732491  Biso 1.0 Hf
Hf12 1.0000000000 0.6892267509 0.5607732491 0.1892267509  Biso 1.0 Hf
Hf13 1.0000000000 0.0607732491 0.1892267509 0.1892267509  Biso 1.0 Hf
Hf14 1.0000000000 0.6892267509 0.5607732491 0.5607732491  Biso 1.0 Hf
Hf15 1.0000000000 0.6892267509 0.1892267509 0.5607732491  Biso 1.0 Hf
Hf16 1.0000000000 0.0607732491 0.5607732491 0.1892267509  Biso 1.0 Hf
Pd17 1.0000000000 0.3477936496 0.2174021168 0.2174021168  Biso 1.0 Pd
Pd18 1.0000000000 0.7174021168 0.8477936496 0.2174021168  Biso 1.0 Pd
Pd19 1.0000000000 0.7174021168 0.2174021168 0.8477936496  Biso 1.0 Pd
Pd20 1.0000000000 0.7174021168 0.2174021168 0.2174021168  Biso 1.0 Pd
Pd21 1.0000000000 0.2825978832 0.1522063504 0.7825978832  Biso 1.0 Pd
Pd22 1.0000000000 0.6522063504 0.7825978832 0.7825978832  Biso 1.0 Pd
Pd23 1.0000000000 0.2825978832 0.7825978832 0.1522063504  Biso 1.0 Pd
Pd24 1.0000000000 0.2825978832 0.7825978832 0.7825978832  Biso 1.0 Pd
