# AFLOW.org Repositories
# Hf2Pd1   [BCT,BCT2,tI6] (STD_PRIM doi:10
data_Hf2Pd1
_pd_phase_name Hf2Pd1
_cell_length_a  5.9138438979
_cell_length_b  5.9138438979
_cell_length_c  5.9138438979
_cell_angle_alpha  147.8548643886
_cell_angle_beta  147.8548643886
_cell_angle_gamma  46.0996617005
_symmetry_space_group_name_H-M  'P1'
_symmetry_Int_Tables_Number  1
loop_
_symmetry_equiv_pos_site_id
_symmetry_equiv_pos_as_xyz
  1  x,y,z
loop_
 _atom_site_label
 _atom_site_occupancy
 _atom_site_fract_x
 _atom_site_fract_y
 _atom_site_fract_z
 _atom_site_thermal_displace_type
 _atom_site_B_iso_or_equiv
 _atom_site_type_symbol
Hf1 1.0000000000 0.3415395626 0.3415395626 0.0000000000  Biso 1.0 Hf
Hf2 1.0000000000 0.6584604374 0.6584604374 0.0000000000  Biso 1.0 Hf
Pd3 1.0000000000 0.0000000000 0.0000000000 0.0000000000  Biso 1.0 Pd
