# AFLOW.org Repositories
# Hf2Rh1   [FCC,FCC,cF96] (STD_PRIM doi:10
data_Hf2Rh1
_pd_phase_name Hf2Rh1
_cell_length_a  8.7118005977
_cell_length_b  8.7118005977
_cell_length_c  8.7118005977
_cell_angle_alpha  60.0000000000
_cell_angle_beta  60.0000000000
_cell_angle_gamma  60.0000000000
_symmetry_space_group_name_H-M  'P1'
_symmetry_Int_Tables_Number  1
loop_
_symmetry_equiv_pos_site_id
_symmetry_equiv_pos_as_xyz
  1  x,y,z
loop_
 _atom_site_label
 _atom_site_occupancy
 _atom_site_fract_x
 _atom_site_fract_y
 _atom_site_fract_z
 _atom_site_thermal_displace_type
 _atom_site_B_iso_or_equiv
 _atom_site_type_symbol
Hf1 1.0000000000 0.0000000000 0.0000000000 0.0000000000  Biso 1.0 Hf
Hf2 1.0000000000 0.5000000000 0.5000000000 0.0000000000  Biso 1.0 Hf
Hf3 1.0000000000 0.0000000000 0.5000000000 0.0000000000  Biso 1.0 Hf
Hf4 1.0000000000 0.0000000000 0.5000000000 0.5000000000  Biso 1.0 Hf
Hf5 1.0000000000 0.4396033329 0.3103966671 0.8103966671  Biso 1.0 Hf
Hf6 1.0000000000 0.8103966671 0.9396033329 0.4396033329  Biso 1.0 Hf
Hf7 1.0000000000 0.4396033329 0.3103966671 0.4396033329  Biso 1.0 Hf
Hf8 1.0000000000 0.8103966671 0.9396033329 0.8103966671  Biso 1.0 Hf
Hf9 1.0000000000 0.8103966671 0.3103966671 0.4396033329  Biso 1.0 Hf
Hf10 1.0000000000 0.4396033329 0.9396033329 0.8103966671  Biso 1.0 Hf
Hf11 1.0000000000 0.1896033329 0.0603966671 0.1896033329  Biso 1.0 Hf
Hf12 1.0000000000 0.5603966671 0.6896033329 0.5603966671  Biso 1.0 Hf
Hf13 1.0000000000 0.1896033329 0.0603966671 0.5603966671  Biso 1.0 Hf
Hf14 1.0000000000 0.5603966671 0.6896033329 0.1896033329  Biso 1.0 Hf
Hf15 1.0000000000 0.1896033329 0.6896033329 0.5603966671  Biso 1.0 Hf
Hf16 1.0000000000 0.5603966671 0.0603966671 0.1896033329  Biso 1.0 Hf
Rh17 1.0000000000 0.2224189733 0.3327430802 0.2224189733  Biso 1.0 Rh
Rh18 1.0000000000 0.8327430802 0.7224189733 0.2224189733  Biso 1.0 Rh
Rh19 1.0000000000 0.2224189733 0.7224189733 0.2224189733  Biso 1.0 Rh
Rh20 1.0000000000 0.2224189733 0.7224189733 0.8327430802  Biso 1.0 Rh
Rh21 1.0000000000 0.1672569198 0.2775810267 0.7775810267  Biso 1.0 Rh
Rh22 1.0000000000 0.7775810267 0.6672569198 0.7775810267  Biso 1.0 Rh
Rh23 1.0000000000 0.7775810267 0.2775810267 0.7775810267  Biso 1.0 Rh
Rh24 1.0000000000 0.7775810267 0.2775810267 0.1672569198  Biso 1.0 Rh
