# AFLOW.org Repositories
# Hf3In4   [TET,TET,tP14] (STD_PRIM doi:10
data_Hf3In4
_pd_phase_name Hf3In4
_cell_length_a  10.2782023349
_cell_length_b  10.2782023349
_cell_length_c  3.1147679776
_cell_angle_alpha  90.0000000000
_cell_angle_beta  90.0000000000
_cell_angle_gamma  90.0000000000
_symmetry_space_group_name_H-M  'P1'
_symmetry_Int_Tables_Number  1
loop_
_symmetry_equiv_pos_site_id
_symmetry_equiv_pos_as_xyz
  1  x,y,z
loop_
 _atom_site_label
 _atom_site_occupancy
 _atom_site_fract_x
 _atom_site_fract_y
 _atom_site_fract_z
 _atom_site_thermal_displace_type
 _atom_site_B_iso_or_equiv
 _atom_site_type_symbol
Hf1 1.0000000000 0.0000000000 0.5000000000 0.0000000000  Biso 1.0 Hf
Hf2 1.0000000000 0.5000000000 0.0000000000 0.0000000000  Biso 1.0 Hf
Hf3 1.0000000000 0.1879836531 0.6879836531 0.5000000000  Biso 1.0 Hf
Hf4 1.0000000000 0.8120163469 0.3120163469 0.5000000000  Biso 1.0 Hf
Hf5 1.0000000000 0.3120163469 0.1879836531 0.5000000000  Biso 1.0 Hf
Hf6 1.0000000000 0.6879836531 0.8120163469 0.5000000000  Biso 1.0 Hf
In7 1.0000000000 0.0501816834 0.2067437282 0.0000000000  Biso 1.0 In
In8 1.0000000000 0.9498183166 0.7932562718 0.0000000000  Biso 1.0 In
In9 1.0000000000 0.7932562718 0.0501816834 0.0000000000  Biso 1.0 In
In10 1.0000000000 0.2067437282 0.9498183166 0.0000000000  Biso 1.0 In
In11 1.0000000000 0.4498183166 0.7067437282 0.0000000000  Biso 1.0 In
In12 1.0000000000 0.5501816834 0.2932562718 0.0000000000  Biso 1.0 In
In13 1.0000000000 0.7067437282 0.5501816834 0.0000000000  Biso 1.0 In
In14 1.0000000000 0.2932562718 0.4498183166 0.0000000000  Biso 1.0 In
