# AFLOW.org Repositories
# Hf3P2   [ORC,ORC,oP20] (STD_PRIM doi:10.
data_Hf3P2
_pd_phase_name Hf3P2
_cell_length_a  3.5876081620
_cell_length_b  9.8731490995
_cell_length_c  10.1951694896
_cell_angle_alpha  90.0000000000
_cell_angle_beta  90.0000000000
_cell_angle_gamma  90.0000000000
_symmetry_space_group_name_H-M  'P1'
_symmetry_Int_Tables_Number  1
loop_
_symmetry_equiv_pos_site_id
_symmetry_equiv_pos_as_xyz
  1  x,y,z
loop_
 _atom_site_label
 _atom_site_occupancy
 _atom_site_fract_x
 _atom_site_fract_y
 _atom_site_fract_z
 _atom_site_thermal_displace_type
 _atom_site_B_iso_or_equiv
 _atom_site_type_symbol
Hf1 1.0000000000 0.7500000000 0.8735625546 0.0459572644  Biso 1.0 Hf
Hf2 1.0000000000 0.2500000000 0.3735625546 0.4540427356  Biso 1.0 Hf
Hf3 1.0000000000 0.2500000000 0.1264374454 0.9540427356  Biso 1.0 Hf
Hf4 1.0000000000 0.7500000000 0.6264374454 0.5459572644  Biso 1.0 Hf
Hf5 1.0000000000 0.7500000000 0.9352153754 0.3753994340  Biso 1.0 Hf
Hf6 1.0000000000 0.2500000000 0.4352153754 0.1246005660  Biso 1.0 Hf
Hf7 1.0000000000 0.2500000000 0.0647846246 0.6246005660  Biso 1.0 Hf
Hf8 1.0000000000 0.7500000000 0.5647846246 0.8753994340  Biso 1.0 Hf
Hf9 1.0000000000 0.7500000000 0.2031478584 0.2162319417  Biso 1.0 Hf
Hf10 1.0000000000 0.2500000000 0.7031478584 0.2837680583  Biso 1.0 Hf
Hf11 1.0000000000 0.2500000000 0.7968521416 0.7837680583  Biso 1.0 Hf
Hf12 1.0000000000 0.7500000000 0.2968521416 0.7162319417  Biso 1.0 Hf
P13 1.0000000000 0.7500000000 0.5001054813 0.3070161902  Biso 1.0 P
P14 1.0000000000 0.2500000000 0.0000000000 0.1929838098  Biso 1.0 P
P15 1.0000000000 0.2500000000 0.4998945187 0.6929838098  Biso 1.0 P
P16 1.0000000000 0.7500000000 0.0000000000 0.8070161902  Biso 1.0 P
P17 1.0000000000 0.7500000000 0.1790933258 0.4728404885  Biso 1.0 P
P18 1.0000000000 0.2500000000 0.6790933258 0.0271595115  Biso 1.0 P
P19 1.0000000000 0.2500000000 0.8209066742 0.5271595115  Biso 1.0 P
P20 1.0000000000 0.7500000000 0.3209066742 0.9728404885  Biso 1.0 P
