# AFLOW.org Repositories
# Hg1K1Sb1   [HEX,HEX,hP6] (STD_PRIM doi:1
data_Hg1K1Sb1
_pd_phase_name Hg1K1Sb1
_cell_length_a  4.8925722875
_cell_length_b  4.8925722875
_cell_length_c  10.4573582561
_cell_angle_alpha  90.0000000000
_cell_angle_beta  90.0000000000
_cell_angle_gamma  120.0000000000
_symmetry_space_group_name_H-M  'P1'
_symmetry_Int_Tables_Number  1
loop_
_symmetry_equiv_pos_site_id
_symmetry_equiv_pos_as_xyz
  1  x,y,z
loop_
 _atom_site_label
 _atom_site_occupancy
 _atom_site_fract_x
 _atom_site_fract_y
 _atom_site_fract_z
 _atom_site_thermal_displace_type
 _atom_site_B_iso_or_equiv
 _atom_site_type_symbol
Hg1 1.0000000000 0.3333332862 0.6666667138 0.7500000000  Biso 1.0 Hg
Hg2 1.0000000000 0.6666667138 0.3333332862 0.2500000000  Biso 1.0 Hg
K3 1.0000000000 0.0000000000 0.0000000000 0.0000000000  Biso 1.0 K
K4 1.0000000000 0.0000000000 0.0000000000 0.5000000000  Biso 1.0 K
Sb5 1.0000000000 0.3333306041 0.6666693959 0.2500000000  Biso 1.0 Sb
Sb6 1.0000000000 0.6666693959 0.3333306041 0.7500000000  Biso 1.0 Sb
