# AFLOW.org Repositories
# Hg1Sn1Sr1   [HEX,HEX,hP6] (STD_PRIM doi:
data_Hg1Sn1Sr1
_pd_phase_name Hg1Sn1Sr1
_cell_length_a  5.0324576246
_cell_length_b  5.0324576246
_cell_length_c  8.2331523893
_cell_angle_alpha  90.0000000000
_cell_angle_beta  90.0000000000
_cell_angle_gamma  120.0000000000
_symmetry_space_group_name_H-M  'P1'
_symmetry_Int_Tables_Number  1
loop_
_symmetry_equiv_pos_site_id
_symmetry_equiv_pos_as_xyz
  1  x,y,z
loop_
 _atom_site_label
 _atom_site_occupancy
 _atom_site_fract_x
 _atom_site_fract_y
 _atom_site_fract_z
 _atom_site_thermal_displace_type
 _atom_site_B_iso_or_equiv
 _atom_site_type_symbol
Hg1 1.0000000000 0.3333222812 0.6666611406 0.0533097287  Biso 1.0 Hg
Hg2 1.0000000000 0.6666777188 0.3333388594 0.5533097287  Biso 1.0 Hg
Sn3 1.0000000000 0.3333207418 0.6666603709 0.4646129833  Biso 1.0 Sn
Sn4 1.0000000000 0.6666792582 0.3333396291 0.9646129833  Biso 1.0 Sn
Sr5 1.0000000000 0.0000000000 0.0000000000 0.2520772880  Biso 1.0 Sr
Sr6 1.0000000000 0.0000000000 0.0000000000 0.7520772880  Biso 1.0 Sr
