# AFLOW.org Repositories
# Hg2Th1   [HEX,HEX,hP6] (STD_PRIM doi:10.
data_Hg2Th1
_pd_phase_name Hg2Th1
_cell_length_a  4.9615393046
_cell_length_b  4.9615393046
_cell_length_c  7.6580511133
_cell_angle_alpha  90.0000000000
_cell_angle_beta  90.0000000000
_cell_angle_gamma  120.0000000000
_symmetry_space_group_name_H-M  'P1'
_symmetry_Int_Tables_Number  1
loop_
_symmetry_equiv_pos_site_id
_symmetry_equiv_pos_as_xyz
  1  x,y,z
loop_
 _atom_site_label
 _atom_site_occupancy
 _atom_site_fract_x
 _atom_site_fract_y
 _atom_site_fract_z
 _atom_site_thermal_displace_type
 _atom_site_B_iso_or_equiv
 _atom_site_type_symbol
Hg1 1.0000000000 0.3333287203 0.6666712797 0.4612915100  Biso 1.0 Hg
Hg2 1.0000000000 0.6666712797 0.3333287203 0.9612915100  Biso 1.0 Hg
Hg3 1.0000000000 0.6666712797 0.3333287203 0.5387084900  Biso 1.0 Hg
Hg4 1.0000000000 0.3333287203 0.6666712797 0.0387084900  Biso 1.0 Hg
Th5 1.0000000000 0.0000000000 0.0000000000 0.2500000000  Biso 1.0 Th
Th6 1.0000000000 0.0000000000 0.0000000000 0.7500000000  Biso 1.0 Th
