# AFLOW.org Repositories
# Ho1Ir1Si1   [ORC,ORC,oP12] (STD_PRIM doi
data_Ho1Ir1Si1
_pd_phase_name Ho1Ir1Si1
_cell_length_a  4.2255501246
_cell_length_b  6.8352686934
_cell_length_c  7.3538778583
_cell_angle_alpha  90.0000000000
_cell_angle_beta  90.0000000000
_cell_angle_gamma  90.0000000000
_symmetry_space_group_name_H-M  'P1'
_symmetry_Int_Tables_Number  1
loop_
_symmetry_equiv_pos_site_id
_symmetry_equiv_pos_as_xyz
  1  x,y,z
loop_
 _atom_site_label
 _atom_site_occupancy
 _atom_site_fract_x
 _atom_site_fract_y
 _atom_site_fract_z
 _atom_site_thermal_displace_type
 _atom_site_B_iso_or_equiv
 _atom_site_type_symbol
Ho1 1.0000000000 0.2500000000 0.9987787120 0.3122700196  Biso 1.0 Ho
Ho2 1.0000000000 0.7500000000 0.5012212880 0.8122700196  Biso 1.0 Ho
Ho3 1.0000000000 0.7500000000 0.0012212880 0.6877299804  Biso 1.0 Ho
Ho4 1.0000000000 0.2500000000 0.4987787120 0.1877299804  Biso 1.0 Ho
Ir5 1.0000000000 0.2500000000 0.1564053576 0.9307996696  Biso 1.0 Ir
Ir6 1.0000000000 0.7500000000 0.3435946424 0.4307996696  Biso 1.0 Ir
Ir7 1.0000000000 0.7500000000 0.8435946424 0.0692003304  Biso 1.0 Ir
Ir8 1.0000000000 0.2500000000 0.6564053576 0.5692003304  Biso 1.0 Ir
Si9 1.0000000000 0.2500000000 0.2985018415 0.6070072584  Biso 1.0 Si
Si10 1.0000000000 0.7500000000 0.2014981585 0.1070072584  Biso 1.0 Si
Si11 1.0000000000 0.7500000000 0.7014981585 0.3929927416  Biso 1.0 Si
Si12 1.0000000000 0.2500000000 0.7985018415 0.8929927416  Biso 1.0 Si
