# AFLOW.org Repositories
# Ho1Mg2   [HEX,HEX,hP12] (STD_PRIM doi:10
data_Ho1Mg2
_pd_phase_name Ho1Mg2
_cell_length_a  6.0304132284
_cell_length_b  6.0304132284
_cell_length_c  9.7758102209
_cell_angle_alpha  90.0000000000
_cell_angle_beta  90.0000000000
_cell_angle_gamma  120.0000000000
_symmetry_space_group_name_H-M  'P1'
_symmetry_Int_Tables_Number  1
loop_
_symmetry_equiv_pos_site_id
_symmetry_equiv_pos_as_xyz
  1  x,y,z
loop_
 _atom_site_label
 _atom_site_occupancy
 _atom_site_fract_x
 _atom_site_fract_y
 _atom_site_fract_z
 _atom_site_thermal_displace_type
 _atom_site_B_iso_or_equiv
 _atom_site_type_symbol
Ho1 1.0000000000 0.3333767264 0.6666883632 0.0634863888  Biso 1.0 Ho
Ho2 1.0000000000 0.6666232736 0.3333116368 0.5634863888  Biso 1.0 Ho
Ho3 1.0000000000 0.6666232736 0.3333116368 0.9365136112  Biso 1.0 Ho
Ho4 1.0000000000 0.3333767264 0.6666883632 0.4365136112  Biso 1.0 Ho
Mg5 1.0000000000 0.0000000000 0.0000000000 0.0000000000  Biso 1.0 Mg
Mg6 1.0000000000 0.0000000000 0.0000000000 0.5000000000  Biso 1.0 Mg
Mg7 1.0000000000 0.8291616615 0.1708600789 0.2500000000  Biso 1.0 Mg
Mg8 1.0000000000 0.8291616615 0.6583015826 0.2500000000  Biso 1.0 Mg
Mg9 1.0000000000 0.3416940226 0.1708470113 0.2500000000  Biso 1.0 Mg
Mg10 1.0000000000 0.1708383385 0.8291399211 0.7500000000  Biso 1.0 Mg
Mg11 1.0000000000 0.1708383385 0.3416984174 0.7500000000  Biso 1.0 Mg
Mg12 1.0000000000 0.6583059774 0.8291529887 0.7500000000  Biso 1.0 Mg
