# AFLOW.org Repositories
# Ho1Mn6Sn6   [HEX,HEX,hP13] (STD_PRIM doi
data_Ho1Mn6Sn6
_pd_phase_name Ho1Mn6Sn6
_cell_length_a  5.5654742099
_cell_length_b  5.5654742099
_cell_length_c  9.1631265858
_cell_angle_alpha  90.0000000000
_cell_angle_beta  90.0000000000
_cell_angle_gamma  120.0000000000
_symmetry_space_group_name_H-M  'P1'
_symmetry_Int_Tables_Number  1
loop_
_symmetry_equiv_pos_site_id
_symmetry_equiv_pos_as_xyz
  1  x,y,z
loop_
 _atom_site_label
 _atom_site_occupancy
 _atom_site_fract_x
 _atom_site_fract_y
 _atom_site_fract_z
 _atom_site_thermal_displace_type
 _atom_site_B_iso_or_equiv
 _atom_site_type_symbol
Ho1 1.0000000000 0.0000000000 0.0000000000 0.0000000000  Biso 1.0 Ho
Mn2 1.0000000000 0.0000000000 0.5000000000 0.2469396156  Biso 1.0 Mn
Mn3 1.0000000000 0.5000000000 0.5000000000 0.2469396156  Biso 1.0 Mn
Mn4 1.0000000000 0.5000000000 0.0000000000 0.2472305542  Biso 1.0 Mn
Mn5 1.0000000000 0.5000000000 0.5000000000 0.7530603844  Biso 1.0 Mn
Mn6 1.0000000000 0.0000000000 0.5000000000 0.7530603844  Biso 1.0 Mn
Mn7 1.0000000000 0.5000000000 0.0000000000 0.7527694458  Biso 1.0 Mn
Sn8 1.0000000000 0.6664938175 0.3329876349 0.0000000000  Biso 1.0 Sn
Sn9 1.0000000000 0.3335061825 0.6670123651 0.0000000000  Biso 1.0 Sn
Sn10 1.0000000000 0.6669900159 0.3339800317 0.5000000000  Biso 1.0 Sn
Sn11 1.0000000000 0.3330099841 0.6660199683 0.5000000000  Biso 1.0 Sn
Sn12 1.0000000000 0.0000000000 0.0000000000 0.3336227546  Biso 1.0 Sn
Sn13 1.0000000000 0.0000000000 0.0000000000 0.6663772454  Biso 1.0 Sn
