# AFLOW.org Repositories
# Ho1Pd1Sn1   [ORC,ORC,oP12] (STD_PRIM doi
data_Ho1Pd1Sn1
_pd_phase_name Ho1Pd1Sn1
_cell_length_a  4.6653295228
_cell_length_b  7.1943822070
_cell_length_c  7.9884323009
_cell_angle_alpha  90.0000000000
_cell_angle_beta  90.0000000000
_cell_angle_gamma  90.0000000000
_symmetry_space_group_name_H-M  'P1'
_symmetry_Int_Tables_Number  1
loop_
_symmetry_equiv_pos_site_id
_symmetry_equiv_pos_as_xyz
  1  x,y,z
loop_
 _atom_site_label
 _atom_site_occupancy
 _atom_site_fract_x
 _atom_site_fract_y
 _atom_site_fract_z
 _atom_site_thermal_displace_type
 _atom_site_B_iso_or_equiv
 _atom_site_type_symbol
Ho1 1.0000000000 0.2500000000 0.9906013908 0.2916923525  Biso 1.0 Ho
Ho2 1.0000000000 0.7500000000 0.5093986092 0.7916923525  Biso 1.0 Ho
Ho3 1.0000000000 0.7500000000 0.0093986092 0.7083076475  Biso 1.0 Ho
Ho4 1.0000000000 0.2500000000 0.4906013908 0.2083076475  Biso 1.0 Ho
Pd5 1.0000000000 0.2500000000 0.2059213563 0.9171162470  Biso 1.0 Pd
Pd6 1.0000000000 0.7500000000 0.2940786437 0.4171162470  Biso 1.0 Pd
Pd7 1.0000000000 0.7500000000 0.7940786437 0.0828837530  Biso 1.0 Pd
Pd8 1.0000000000 0.2500000000 0.7059213563 0.5828837530  Biso 1.0 Pd
Sn9 1.0000000000 0.2500000000 0.3020929886 0.5876600039  Biso 1.0 Sn
Sn10 1.0000000000 0.7500000000 0.1979070114 0.0876600039  Biso 1.0 Sn
Sn11 1.0000000000 0.7500000000 0.6979070114 0.4123399961  Biso 1.0 Sn
Sn12 1.0000000000 0.2500000000 0.8020929886 0.9123399961  Biso 1.0 Sn
