# AFLOW.org Repositories
# Ho1Pt2Si1   [ORC,ORC,oP16] (STD_PRIM doi
data_Ho1Pt2Si1
_pd_phase_name Ho1Pt2Si1
_cell_length_a  5.5260627263
_cell_length_b  6.9155555481
_cell_length_c  7.2753152183
_cell_angle_alpha  90.0000000000
_cell_angle_beta  90.0000000000
_cell_angle_gamma  90.0000000000
_symmetry_space_group_name_H-M  'P1'
_symmetry_Int_Tables_Number  1
loop_
_symmetry_equiv_pos_site_id
_symmetry_equiv_pos_as_xyz
  1  x,y,z
loop_
 _atom_site_label
 _atom_site_occupancy
 _atom_site_fract_x
 _atom_site_fract_y
 _atom_site_fract_z
 _atom_site_thermal_displace_type
 _atom_site_B_iso_or_equiv
 _atom_site_type_symbol
Ho1 1.0000000000 0.6398407497 0.7500000000 0.0269950219  Biso 1.0 Ho
Ho2 1.0000000000 0.1398407497 0.2500000000 0.4730049781  Biso 1.0 Ho
Ho3 1.0000000000 0.3601592503 0.2500000000 0.9730049781  Biso 1.0 Ho
Ho4 1.0000000000 0.8601592503 0.7500000000 0.5269950219  Biso 1.0 Ho
Pt5 1.0000000000 0.0910674003 0.9496304707 0.1812014795  Biso 1.0 Pt
Pt6 1.0000000000 0.5910674003 0.0503695293 0.3187985205  Biso 1.0 Pt
Pt7 1.0000000000 0.9089325997 0.4496304707 0.8187985205  Biso 1.0 Pt
Pt8 1.0000000000 0.4089325997 0.5503695293 0.6812014795  Biso 1.0 Pt
Pt9 1.0000000000 0.9089325997 0.0503695293 0.8187985205  Biso 1.0 Pt
Pt10 1.0000000000 0.4089325997 0.9496304707 0.6812014795  Biso 1.0 Pt
Pt11 1.0000000000 0.0910674003 0.5503695293 0.1812014795  Biso 1.0 Pt
Pt12 1.0000000000 0.5910674003 0.4496304707 0.3187985205  Biso 1.0 Pt
Si13 1.0000000000 0.3603993704 0.7500000000 0.3790642676  Biso 1.0 Si
Si14 1.0000000000 0.8603993704 0.2500000000 0.1209357324  Biso 1.0 Si
Si15 1.0000000000 0.6396006296 0.2500000000 0.6209357324  Biso 1.0 Si
Si16 1.0000000000 0.1396006296 0.7500000000 0.8790642676  Biso 1.0 Si
