# AFLOW.org Repositories
# Ho1Rh1Si1   [ORC,ORC,oP12] (STD_PRIM doi
data_Ho1Rh1Si1
_pd_phase_name Ho1Rh1Si1
_cell_length_a  4.2390709529
_cell_length_b  6.8691689108
_cell_length_c  7.3345576457
_cell_angle_alpha  90.0000000000
_cell_angle_beta  90.0000000000
_cell_angle_gamma  90.0000000000
_symmetry_space_group_name_H-M  'P1'
_symmetry_Int_Tables_Number  1
loop_
_symmetry_equiv_pos_site_id
_symmetry_equiv_pos_as_xyz
  1  x,y,z
loop_
 _atom_site_label
 _atom_site_occupancy
 _atom_site_fract_x
 _atom_site_fract_y
 _atom_site_fract_z
 _atom_site_thermal_displace_type
 _atom_site_B_iso_or_equiv
 _atom_site_type_symbol
Ho1 1.0000000000 0.2500000000 0.9973887560 0.8099898630  Biso 1.0 Ho
Ho2 1.0000000000 0.7500000000 0.5026112440 0.3099898630  Biso 1.0 Ho
Ho3 1.0000000000 0.7500000000 0.0026112440 0.1900101370  Biso 1.0 Ho
Ho4 1.0000000000 0.2500000000 0.4973887560 0.6900101370  Biso 1.0 Ho
Rh5 1.0000000000 0.2500000000 0.1537705026 0.4292978592  Biso 1.0 Rh
Rh6 1.0000000000 0.7500000000 0.3462294974 0.9292978592  Biso 1.0 Rh
Rh7 1.0000000000 0.7500000000 0.8462294974 0.5707021408  Biso 1.0 Rh
Rh8 1.0000000000 0.2500000000 0.6537705026 0.0707021408  Biso 1.0 Rh
Si9 1.0000000000 0.2500000000 0.7960474071 0.3973229902  Biso 1.0 Si
Si10 1.0000000000 0.7500000000 0.7039525929 0.8973229902  Biso 1.0 Si
Si11 1.0000000000 0.7500000000 0.2039525929 0.6026770098  Biso 1.0 Si
Si12 1.0000000000 0.2500000000 0.2960474071 0.1026770098  Biso 1.0 Si
