# AFLOW.org Repositories
# Ho1Si1Ti1   [TET,TET,tP6] (STD_PRIM doi:
data_Ho1Si1Ti1
_pd_phase_name Ho1Si1Ti1
_cell_length_a  4.0394947943
_cell_length_b  4.0394947943
_cell_length_c  7.6648831849
_cell_angle_alpha  90.0000000000
_cell_angle_beta  90.0000000000
_cell_angle_gamma  90.0000000000
_symmetry_space_group_name_H-M  'P1'
_symmetry_Int_Tables_Number  1
loop_
_symmetry_equiv_pos_site_id
_symmetry_equiv_pos_as_xyz
  1  x,y,z
loop_
 _atom_site_label
 _atom_site_occupancy
 _atom_site_fract_x
 _atom_site_fract_y
 _atom_site_fract_z
 _atom_site_thermal_displace_type
 _atom_site_B_iso_or_equiv
 _atom_site_type_symbol
Ho1 1.0000000000 0.2500000000 0.2500000000 0.6502620146  Biso 1.0 Ho
Ho2 1.0000000000 0.7500000000 0.7500000000 0.3497379854  Biso 1.0 Ho
Si3 1.0000000000 0.2500000000 0.2500000000 0.2452143070  Biso 1.0 Si
Si4 1.0000000000 0.7500000000 0.7500000000 0.7547856930  Biso 1.0 Si
Ti5 1.0000000000 0.7500000000 0.2500000000 0.0000000000  Biso 1.0 Ti
Ti6 1.0000000000 0.2500000000 0.7500000000 0.0000000000  Biso 1.0 Ti
