# AFLOW.org Repositories
# Ho1Si1   [ORC,ORC,oP8] (STD_PRIM doi:10.
data_Ho1Si1
_pd_phase_name Ho1Si1
_cell_length_a  3.8164835793
_cell_length_b  5.6777083928
_cell_length_c  7.8738442493
_cell_angle_alpha  90.0000000000
_cell_angle_beta  90.0000000000
_cell_angle_gamma  90.0000000000
_symmetry_space_group_name_H-M  'P1'
_symmetry_Int_Tables_Number  1
loop_
_symmetry_equiv_pos_site_id
_symmetry_equiv_pos_as_xyz
  1  x,y,z
loop_
 _atom_site_label
 _atom_site_occupancy
 _atom_site_fract_x
 _atom_site_fract_y
 _atom_site_fract_z
 _atom_site_thermal_displace_type
 _atom_site_B_iso_or_equiv
 _atom_site_type_symbol
Ho1 1.0000000000 0.7500000000 0.6150100184 0.3208725944  Biso 1.0 Ho
Ho2 1.0000000000 0.2500000000 0.1150100184 0.1791274056  Biso 1.0 Ho
Ho3 1.0000000000 0.2500000000 0.3849899816 0.6791274056  Biso 1.0 Ho
Ho4 1.0000000000 0.7500000000 0.8849899816 0.8208725944  Biso 1.0 Ho
Si5 1.0000000000 0.7500000000 0.1298640122 0.4617547937  Biso 1.0 Si
Si6 1.0000000000 0.2500000000 0.6298640122 0.0382452063  Biso 1.0 Si
Si7 1.0000000000 0.2500000000 0.8701359878 0.5382452063  Biso 1.0 Si
Si8 1.0000000000 0.7500000000 0.3701359878 0.9617547937  Biso 1.0 Si
