# AFLOW.org Repositories
# Ho2In1Ni2   [ORCC,ORCC,oS10] (STD_PRIM d
data_Ho2In1Ni2
_pd_phase_name Ho2In1Ni2
_cell_length_a  7.3753789476
_cell_length_b  7.3753789476
_cell_length_c  3.5700150597
_cell_angle_alpha  90.0000000000
_cell_angle_beta  90.0000000000
_cell_angle_gamma  149.2971799835
_symmetry_space_group_name_H-M  'P1'
_symmetry_Int_Tables_Number  1
loop_
_symmetry_equiv_pos_site_id
_symmetry_equiv_pos_as_xyz
  1  x,y,z
loop_
 _atom_site_label
 _atom_site_occupancy
 _atom_site_fract_x
 _atom_site_fract_y
 _atom_site_fract_z
 _atom_site_thermal_displace_type
 _atom_site_B_iso_or_equiv
 _atom_site_type_symbol
Ho1 1.0000000000 0.3599869237 0.6400130763 0.5000000000  Biso 1.0 Ho
Ho2 1.0000000000 0.6400130763 0.3599869237 0.5000000000  Biso 1.0 Ho
In3 1.0000000000 0.0000000000 0.0000000000 0.0000000000  Biso 1.0 In
Ni4 1.0000000000 0.1968704371 0.8031295629 0.0000000000  Biso 1.0 Ni
Ni5 1.0000000000 0.8031295629 0.1968704371 0.0000000000  Biso 1.0 Ni
