# AFLOW.org Repositories
# Ho2O7Ru2   [FCC,FCC,cF88] (STD_PRIM doi:
data_Ho2O7Ru2
_pd_phase_name Ho2O7Ru2
_cell_length_a  7.2346882913
_cell_length_b  7.2346882913
_cell_length_c  7.2346882913
_cell_angle_alpha  60.0000000000
_cell_angle_beta  60.0000000000
_cell_angle_gamma  60.0000000000
_symmetry_space_group_name_H-M  'P1'
_symmetry_Int_Tables_Number  1
loop_
_symmetry_equiv_pos_site_id
_symmetry_equiv_pos_as_xyz
  1  x,y,z
loop_
 _atom_site_label
 _atom_site_occupancy
 _atom_site_fract_x
 _atom_site_fract_y
 _atom_site_fract_z
 _atom_site_thermal_displace_type
 _atom_site_B_iso_or_equiv
 _atom_site_type_symbol
Ho1 1.0000000000 0.5000000000 0.5000000000 0.5000000000  Biso 1.0 Ho
Ho2 1.0000000000 0.0000000000 0.0000000000 0.5000000000  Biso 1.0 Ho
Ho3 1.0000000000 0.0000000000 0.5000000000 0.5000000000  Biso 1.0 Ho
Ho4 1.0000000000 0.0000000000 0.5000000000 0.0000000000  Biso 1.0 Ho
O5 1.0000000000 0.5888084037 0.6611915963 0.0888084037  Biso 1.0 O
O6 1.0000000000 0.1611915963 0.0888084037 0.6611915963  Biso 1.0 O
O7 1.0000000000 0.5888084037 0.6611915963 0.6611915963  Biso 1.0 O
O8 1.0000000000 0.1611915963 0.0888084037 0.0888084037  Biso 1.0 O
O9 1.0000000000 0.5888084037 0.0888084037 0.6611915963  Biso 1.0 O
O10 1.0000000000 0.1611915963 0.6611915963 0.0888084037  Biso 1.0 O
O11 1.0000000000 0.8388084037 0.9111915963 0.9111915963  Biso 1.0 O
O12 1.0000000000 0.4111915963 0.3388084037 0.3388084037  Biso 1.0 O
O13 1.0000000000 0.8388084037 0.9111915963 0.3388084037  Biso 1.0 O
O14 1.0000000000 0.4111915963 0.3388084037 0.9111915963  Biso 1.0 O
O15 1.0000000000 0.4111915963 0.9111915963 0.3388084037  Biso 1.0 O
O16 1.0000000000 0.8388084037 0.3388084037 0.9111915963  Biso 1.0 O
O17 1.0000000000 0.1250000000 0.6250000000 0.6250000000  Biso 1.0 O
O18 1.0000000000 0.8750000000 0.3750000000 0.3750000000  Biso 1.0 O
Ru19 1.0000000000 0.0000000000 0.0000000000 0.0000000000  Biso 1.0 Ru
Ru20 1.0000000000 0.5000000000 0.5000000000 0.0000000000  Biso 1.0 Ru
Ru21 1.0000000000 0.5000000000 0.0000000000 0.0000000000  Biso 1.0 Ru
Ru22 1.0000000000 0.5000000000 0.0000000000 0.5000000000  Biso 1.0 Ru
