# AFLOW.org Repositories
# Ho2O3   [BCC,BCC,cI80] (STD_PRIM doi:10.
data_Ho2O3
_pd_phase_name Ho2O3
_cell_length_a  9.1876571881
_cell_length_b  9.1876571881
_cell_length_c  9.1876571881
_cell_angle_alpha  109.4712206345
_cell_angle_beta  109.4712206345
_cell_angle_gamma  109.4712206345
_symmetry_space_group_name_H-M  'P1'
_symmetry_Int_Tables_Number  1
loop_
_symmetry_equiv_pos_site_id
_symmetry_equiv_pos_as_xyz
  1  x,y,z
loop_
 _atom_site_label
 _atom_site_occupancy
 _atom_site_fract_x
 _atom_site_fract_y
 _atom_site_fract_z
 _atom_site_thermal_displace_type
 _atom_site_B_iso_or_equiv
 _atom_site_type_symbol
Ho1 1.0000000000 0.7171666685 0.7500000000 0.9671666685  Biso 1.0 Ho
Ho2 1.0000000000 0.7828333315 0.2500000000 0.5328333315  Biso 1.0 Ho
Ho3 1.0000000000 0.2500000000 0.9671666685 0.2171666685  Biso 1.0 Ho
Ho4 1.0000000000 0.7500000000 0.5328333315 0.2828333315  Biso 1.0 Ho
Ho5 1.0000000000 0.0328333315 0.2828333315 0.2500000000  Biso 1.0 Ho
Ho6 1.0000000000 0.4671666685 0.2171666685 0.7500000000  Biso 1.0 Ho
Ho7 1.0000000000 0.2828333315 0.2500000000 0.0328333315  Biso 1.0 Ho
Ho8 1.0000000000 0.2171666685 0.7500000000 0.4671666685  Biso 1.0 Ho
Ho9 1.0000000000 0.7500000000 0.0328333315 0.7828333315  Biso 1.0 Ho
Ho10 1.0000000000 0.2500000000 0.4671666685 0.7171666685  Biso 1.0 Ho
Ho11 1.0000000000 0.9671666685 0.7171666685 0.7500000000  Biso 1.0 Ho
Ho12 1.0000000000 0.5328333315 0.7828333315 0.2500000000  Biso 1.0 Ho
Ho13 1.0000000000 0.0000000000 0.0000000000 0.5000000000  Biso 1.0 Ho
Ho14 1.0000000000 0.5000000000 0.0000000000 0.0000000000  Biso 1.0 Ho
Ho15 1.0000000000 0.5000000000 0.5000000000 0.5000000000  Biso 1.0 Ho
Ho16 1.0000000000 0.0000000000 0.5000000000 0.0000000000  Biso 1.0 Ho
O17 1.0000000000 0.0113635460 0.7719437008 0.5427411846  Biso 1.0 O
O18 1.0000000000 0.2292025161 0.9686223613 0.9572588154  Biso 1.0 O
O19 1.0000000000 0.4886364540 0.5313776387 0.2605801548  Biso 1.0 O
O20 1.0000000000 0.2707974839 0.7280562992 0.2394198452  Biso 1.0 O
O21 1.0000000000 0.2280562992 0.2394198452 0.7707974839  Biso 1.0 O
O22 1.0000000000 0.0313776387 0.2605801548 0.9886364540  Biso 1.0 O
O23 1.0000000000 0.4686223613 0.9572588154 0.7292025161  Biso 1.0 O
O24 1.0000000000 0.2719437008 0.5427411846 0.5113635460  Biso 1.0 O
O25 1.0000000000 0.7605801548 0.9886364540 0.5313776387  Biso 1.0 O
O26 1.0000000000 0.7394198452 0.7707974839 0.7280562992  Biso 1.0 O
O27 1.0000000000 0.0427411846 0.5113635460 0.7719437008  Biso 1.0 O
O28 1.0000000000 0.4572588154 0.7292025161 0.9686223613  Biso 1.0 O
O29 1.0000000000 0.9886364540 0.2280562992 0.4572588154  Biso 1.0 O
O30 1.0000000000 0.7707974839 0.0313776387 0.0427411846  Biso 1.0 O
O31 1.0000000000 0.5113635460 0.4686223613 0.7394198452  Biso 1.0 O
O32 1.0000000000 0.7292025161 0.2719437008 0.7605801548  Biso 1.0 O
O33 1.0000000000 0.7719437008 0.7605801548 0.2292025161  Biso 1.0 O
O34 1.0000000000 0.9686223613 0.7394198452 0.0113635460  Biso 1.0 O
O35 1.0000000000 0.5313776387 0.0427411846 0.2707974839  Biso 1.0 O
O36 1.0000000000 0.7280562992 0.4572588154 0.4886364540  Biso 1.0 O
O37 1.0000000000 0.2394198452 0.0113635460 0.4686223613  Biso 1.0 O
O38 1.0000000000 0.2605801548 0.2292025161 0.2719437008  Biso 1.0 O
O39 1.0000000000 0.9572588154 0.4886364540 0.2280562992  Biso 1.0 O
O40 1.0000000000 0.5427411846 0.2707974839 0.0313776387  Biso 1.0 O
