# AFLOW.org Repositories
# Ho3Ru1   [ORC,ORC,oP16] (STD_PRIM doi:10
data_Ho3Ru1
_pd_phase_name Ho3Ru1
_cell_length_a  6.2693492135
_cell_length_b  7.2485234129
_cell_length_c  9.1276808077
_cell_angle_alpha  90.0000000000
_cell_angle_beta  90.0000000000
_cell_angle_gamma  90.0000000000
_symmetry_space_group_name_H-M  'P1'
_symmetry_Int_Tables_Number  1
loop_
_symmetry_equiv_pos_site_id
_symmetry_equiv_pos_as_xyz
  1  x,y,z
loop_
 _atom_site_label
 _atom_site_occupancy
 _atom_site_fract_x
 _atom_site_fract_y
 _atom_site_fract_z
 _atom_site_thermal_displace_type
 _atom_site_B_iso_or_equiv
 _atom_site_type_symbol
Ho1 1.0000000000 0.8311251054 0.1765763209 0.9347800680  Biso 1.0 Ho
Ho2 1.0000000000 0.3311251054 0.3234236791 0.0652199320  Biso 1.0 Ho
Ho3 1.0000000000 0.1688748946 0.8234236791 0.4347800680  Biso 1.0 Ho
Ho4 1.0000000000 0.6688748946 0.6765763209 0.5652199320  Biso 1.0 Ho
Ho5 1.0000000000 0.1688748946 0.8234236791 0.0652199320  Biso 1.0 Ho
Ho6 1.0000000000 0.6688748946 0.6765763209 0.9347800680  Biso 1.0 Ho
Ho7 1.0000000000 0.8311251054 0.1765763209 0.5652199320  Biso 1.0 Ho
Ho8 1.0000000000 0.3311251054 0.3234236791 0.4347800680  Biso 1.0 Ho
Ho9 1.0000000000 0.3631866239 0.0408061222 0.7500000000  Biso 1.0 Ho
Ho10 1.0000000000 0.8631866239 0.4591938778 0.2500000000  Biso 1.0 Ho
Ho11 1.0000000000 0.6368133761 0.9591938778 0.2500000000  Biso 1.0 Ho
Ho12 1.0000000000 0.1368133761 0.5408061222 0.7500000000  Biso 1.0 Ho
Ru13 1.0000000000 0.5394166916 0.3833108473 0.7500000000  Biso 1.0 Ru
Ru14 1.0000000000 0.0394166916 0.1166891527 0.2500000000  Biso 1.0 Ru
Ru15 1.0000000000 0.4605833084 0.6166891527 0.2500000000  Biso 1.0 Ru
Ru16 1.0000000000 0.9605833084 0.8833108473 0.7500000000  Biso 1.0 Ru
