# AFLOW.org Repositories
# Ho3Sn7   [ORCC,ORCC,oS20] (STD_PRIM doi:
data_Ho3Sn7
_pd_phase_name Ho3Sn7
_cell_length_a  13.5190238391
_cell_length_b  13.5190238391
_cell_length_c  4.5386773805
_cell_angle_alpha  90.0000000000
_cell_angle_beta  90.0000000000
_cell_angle_gamma  161.1333581861
_symmetry_space_group_name_H-M  'P1'
_symmetry_Int_Tables_Number  1
loop_
_symmetry_equiv_pos_site_id
_symmetry_equiv_pos_as_xyz
  1  x,y,z
loop_
 _atom_site_label
 _atom_site_occupancy
 _atom_site_fract_x
 _atom_site_fract_y
 _atom_site_fract_z
 _atom_site_thermal_displace_type
 _atom_site_B_iso_or_equiv
 _atom_site_type_symbol
Ho1 1.0000000000 0.0000000000 0.0000000000 0.5000000000  Biso 1.0 Ho
Ho2 1.0000000000 0.6896967426 0.3103032574 0.0000000000  Biso 1.0 Ho
Ho3 1.0000000000 0.3103032574 0.6896967426 0.0000000000  Biso 1.0 Ho
Sn4 1.0000000000 0.5000000000 0.5000000000 0.0000000000  Biso 1.0 Sn
Sn5 1.0000000000 0.5974378869 0.4025621131 0.5000000000  Biso 1.0 Sn
Sn6 1.0000000000 0.4025621131 0.5974378869 0.5000000000  Biso 1.0 Sn
Sn7 1.0000000000 0.9034147768 0.0965852232 0.0000000000  Biso 1.0 Sn
Sn8 1.0000000000 0.0965852232 0.9034147768 0.0000000000  Biso 1.0 Sn
Sn9 1.0000000000 0.7893950268 0.2106049732 0.5000000000  Biso 1.0 Sn
Sn10 1.0000000000 0.2106049732 0.7893950268 0.5000000000  Biso 1.0 Sn
