# AFLOW.org Repositories
# Ho3Tl5   [ORCC,ORCC,oS32] (STD_PRIM doi:
data_Ho3Tl5
_pd_phase_name Ho3Tl5
_cell_length_a  6.4638618339
_cell_length_b  6.4638618339
_cell_length_c  10.5293342728
_cell_angle_alpha  90.0000000000
_cell_angle_beta  90.0000000000
_cell_angle_gamma  102.3006249284
_symmetry_space_group_name_H-M  'P1'
_symmetry_Int_Tables_Number  1
loop_
_symmetry_equiv_pos_site_id
_symmetry_equiv_pos_as_xyz
  1  x,y,z
loop_
 _atom_site_label
 _atom_site_occupancy
 _atom_site_fract_x
 _atom_site_fract_y
 _atom_site_fract_z
 _atom_site_thermal_displace_type
 _atom_site_B_iso_or_equiv
 _atom_site_type_symbol
Ho1 1.0000000000 0.3908876390 0.3908876390 0.2500000000  Biso 1.0 Ho
Ho2 1.0000000000 0.6091123610 0.6091123610 0.7500000000  Biso 1.0 Ho
Ho3 1.0000000000 0.7939321017 0.2060678983 0.0000000000  Biso 1.0 Ho
Ho4 1.0000000000 0.2060678983 0.7939321017 0.5000000000  Biso 1.0 Ho
Ho5 1.0000000000 0.2060678983 0.7939321017 0.0000000000  Biso 1.0 Ho
Ho6 1.0000000000 0.7939321017 0.2060678983 0.5000000000  Biso 1.0 Ho
Tl7 1.0000000000 0.9972622331 0.9972622331 0.2500000000  Biso 1.0 Tl
Tl8 1.0000000000 0.0027377669 0.0027377669 0.7500000000  Biso 1.0 Tl
Tl9 1.0000000000 0.6976226869 0.6976226869 0.4635027162  Biso 1.0 Tl
Tl10 1.0000000000 0.3023773131 0.3023773131 0.9635027162  Biso 1.0 Tl
Tl11 1.0000000000 0.6976226869 0.6976226869 0.0364972838  Biso 1.0 Tl
Tl12 1.0000000000 0.3023773131 0.3023773131 0.5364972838  Biso 1.0 Tl
Tl13 1.0000000000 0.4864248602 0.9331346200 0.2500000000  Biso 1.0 Tl
Tl14 1.0000000000 0.5135751398 0.0668653800 0.7500000000  Biso 1.0 Tl
Tl15 1.0000000000 0.9331346200 0.4864248602 0.2500000000  Biso 1.0 Tl
Tl16 1.0000000000 0.0668653800 0.5135751398 0.7500000000  Biso 1.0 Tl
