# AFLOW.org Repositories
# Ho4Sb3   [BCC,BCC,cI28] (STD_PRIM doi:10
data_Ho4Sb3
_pd_phase_name Ho4Sb3
_cell_length_a  7.9287724729
_cell_length_b  7.9287724729
_cell_length_c  7.9287724729
_cell_angle_alpha  109.4712206345
_cell_angle_beta  109.4712206345
_cell_angle_gamma  109.4712206345
_symmetry_space_group_name_H-M  'P1'
_symmetry_Int_Tables_Number  1
loop_
_symmetry_equiv_pos_site_id
_symmetry_equiv_pos_as_xyz
  1  x,y,z
loop_
 _atom_site_label
 _atom_site_occupancy
 _atom_site_fract_x
 _atom_site_fract_y
 _atom_site_fract_z
 _atom_site_thermal_displace_type
 _atom_site_B_iso_or_equiv
 _atom_site_type_symbol
Ho1 1.0000000000 0.1459393143 0.0000000000 0.0000000000  Biso 1.0 Ho
Ho2 1.0000000000 0.3540606857 0.8540606857 0.3540606857  Biso 1.0 Ho
Ho3 1.0000000000 0.5000000000 0.5000000000 0.1459393143  Biso 1.0 Ho
Ho4 1.0000000000 0.0000000000 0.6459393143 0.5000000000  Biso 1.0 Ho
Ho5 1.0000000000 0.6459393143 0.0000000000 0.0000000000  Biso 1.0 Ho
Ho6 1.0000000000 0.8540606857 0.3540606857 0.8540606857  Biso 1.0 Ho
Ho7 1.0000000000 0.0000000000 0.1459393143 0.5000000000  Biso 1.0 Ho
Ho8 1.0000000000 0.5000000000 0.5000000000 0.6459393143  Biso 1.0 Ho
Sb9 1.0000000000 0.3750000000 0.1250000000 0.7500000000  Biso 1.0 Sb
Sb10 1.0000000000 0.1250000000 0.3750000000 0.2500000000  Biso 1.0 Sb
Sb11 1.0000000000 0.6250000000 0.2500000000 0.3750000000  Biso 1.0 Sb
Sb12 1.0000000000 0.8750000000 0.7500000000 0.1250000000  Biso 1.0 Sb
Sb13 1.0000000000 0.2500000000 0.6250000000 0.8750000000  Biso 1.0 Sb
Sb14 1.0000000000 0.7500000000 0.8750000000 0.6250000000  Biso 1.0 Sb
