# AFLOW.org Repositories
# I1La1   [HEX,HEX,hP4] (STD_PRIM doi:10.1
data_I1La1
_pd_phase_name I1La1
_cell_length_a  3.9826888013
_cell_length_b  3.9826888013
_cell_length_c  9.8523702884
_cell_angle_alpha  90.0000000000
_cell_angle_beta  90.0000000000
_cell_angle_gamma  120.0000000000
_symmetry_space_group_name_H-M  'P1'
_symmetry_Int_Tables_Number  1
loop_
_symmetry_equiv_pos_site_id
_symmetry_equiv_pos_as_xyz
  1  x,y,z
loop_
 _atom_site_label
 _atom_site_occupancy
 _atom_site_fract_x
 _atom_site_fract_y
 _atom_site_fract_z
 _atom_site_thermal_displace_type
 _atom_site_B_iso_or_equiv
 _atom_site_type_symbol
I1 1.0000000000 0.6666967262 0.3333934524 0.2500000000  Biso 1.0 I
I2 1.0000000000 0.3333032738 0.6666065476 0.7500000000  Biso 1.0 I
La3 1.0000000000 0.0000000000 0.0000000000 0.0000000000  Biso 1.0 La
La4 1.0000000000 0.0000000000 0.0000000000 0.5000000000  Biso 1.0 La
