# AFLOW.org Repositories
# I1La5Sn3   [HEX,HEX,hP18] (STD_PRIM doi:
data_I1La5Sn3
_pd_phase_name I1La5Sn3
_cell_length_a  9.8536335070
_cell_length_b  9.8536335070
_cell_length_c  7.1913761565
_cell_angle_alpha  90.0000000000
_cell_angle_beta  90.0000000000
_cell_angle_gamma  120.0000000000
_symmetry_space_group_name_H-M  'P1'
_symmetry_Int_Tables_Number  1
loop_
_symmetry_equiv_pos_site_id
_symmetry_equiv_pos_as_xyz
  1  x,y,z
loop_
 _atom_site_label
 _atom_site_occupancy
 _atom_site_fract_x
 _atom_site_fract_y
 _atom_site_fract_z
 _atom_site_thermal_displace_type
 _atom_site_B_iso_or_equiv
 _atom_site_type_symbol
I1 1.0000000000 0.0000000000 0.0000000000 0.0000000000  Biso 1.0 I
I2 1.0000000000 0.0000000000 0.0000000000 0.5000000000  Biso 1.0 I
La3 1.0000000000 0.0000000000 0.7229002564 0.2500000000  Biso 1.0 La
La4 1.0000000000 0.2770997436 0.2770997436 0.2500000000  Biso 1.0 La
La5 1.0000000000 0.7228954554 0.0000000000 0.2500000000  Biso 1.0 La
La6 1.0000000000 0.0000000000 0.2770997436 0.7500000000  Biso 1.0 La
La7 1.0000000000 0.7229002564 0.7229002564 0.7500000000  Biso 1.0 La
La8 1.0000000000 0.2771045446 0.0000000000 0.7500000000  Biso 1.0 La
La9 1.0000000000 0.6666820090 0.3333640180 0.0000000000  Biso 1.0 La
La10 1.0000000000 0.3333179910 0.6666359820 0.5000000000  Biso 1.0 La
La11 1.0000000000 0.3333179910 0.6666359820 0.0000000000  Biso 1.0 La
La12 1.0000000000 0.6666820090 0.3333640180 0.5000000000  Biso 1.0 La
Sn13 1.0000000000 0.3857407652 0.0000000000 0.2500000000  Biso 1.0 Sn
Sn14 1.0000000000 0.0000000000 0.3857344169 0.2500000000  Biso 1.0 Sn
Sn15 1.0000000000 0.6142655831 0.6142655831 0.2500000000  Biso 1.0 Sn
Sn16 1.0000000000 0.6142592348 0.0000000000 0.7500000000  Biso 1.0 Sn
Sn17 1.0000000000 0.0000000000 0.6142655831 0.7500000000  Biso 1.0 Sn
Sn18 1.0000000000 0.3857344169 0.3857344169 0.7500000000  Biso 1.0 Sn
