# AFLOW.org Repositories
# I2Pb1   [HEX,HEX,hP6] (STD_PRIM doi:10.1
data_I2Pb1
_pd_phase_name I2Pb1
_cell_length_a  4.6613950084
_cell_length_b  4.6613950084
_cell_length_c  14.6385372644
_cell_angle_alpha  90.0000000000
_cell_angle_beta  90.0000000000
_cell_angle_gamma  120.0000000000
_symmetry_space_group_name_H-M  'P1'
_symmetry_Int_Tables_Number  1
loop_
_symmetry_equiv_pos_site_id
_symmetry_equiv_pos_as_xyz
  1  x,y,z
loop_
 _atom_site_label
 _atom_site_occupancy
 _atom_site_fract_x
 _atom_site_fract_y
 _atom_site_fract_z
 _atom_site_thermal_displace_type
 _atom_site_B_iso_or_equiv
 _atom_site_type_symbol
I1 1.0000000000 0.0000000000 0.0000000000 0.1278127951  Biso 1.0 I
I2 1.0000000000 0.0000000000 0.0000000000 0.6278126633  Biso 1.0 I
I3 1.0000000000 0.3333436439 0.6666872879 0.8721822255  Biso 1.0 I
I4 1.0000000000 0.6666564752 0.3333129503 0.3721821773  Biso 1.0 I
Pb5 1.0000000000 0.6667065446 0.3334130893 0.0000000000  Biso 1.0 Pb
Pb6 1.0000000000 0.3332933745 0.6665867491 0.5000051409  Biso 1.0 Pb
