# AFLOW.org Repositories
# I6Pt1Rb2   [FCC,FCC,cF36] (STD_PRIM doi:
data_I6Pt1Rb2
_pd_phase_name I6Pt1Rb2
_cell_length_a  8.1254621231
_cell_length_b  8.1254621231
_cell_length_c  8.1254621231
_cell_angle_alpha  60.0000000000
_cell_angle_beta  60.0000000000
_cell_angle_gamma  60.0000000000
_symmetry_space_group_name_H-M  'P1'
_symmetry_Int_Tables_Number  1
loop_
_symmetry_equiv_pos_site_id
_symmetry_equiv_pos_as_xyz
  1  x,y,z
loop_
 _atom_site_label
 _atom_site_occupancy
 _atom_site_fract_x
 _atom_site_fract_y
 _atom_site_fract_z
 _atom_site_thermal_displace_type
 _atom_site_B_iso_or_equiv
 _atom_site_type_symbol
I1 1.0000000000 0.2355633634 0.7644366366 0.2355633634  Biso 1.0 I
I2 1.0000000000 0.7644366366 0.2355633634 0.7644366366  Biso 1.0 I
I3 1.0000000000 0.2355633634 0.2355633634 0.7644366366  Biso 1.0 I
I4 1.0000000000 0.7644366366 0.7644366366 0.2355633634  Biso 1.0 I
I5 1.0000000000 0.7644366366 0.2355633634 0.2355633634  Biso 1.0 I
I6 1.0000000000 0.2355633634 0.7644366366 0.7644366366  Biso 1.0 I
Pt7 1.0000000000 0.0000000000 0.0000000000 0.0000000000  Biso 1.0 Pt
Rb8 1.0000000000 0.2500000000 0.2500000000 0.2500000000  Biso 1.0 Rb
Rb9 1.0000000000 0.7500000000 0.7500000000 0.7500000000  Biso 1.0 Rb
