# AFLOW.org Repositories
# In1Li1O2   [BCT,BCT2,tI16] (STD_PRIM doi
data_In1Li1O2
_pd_phase_name In1Li1O2
_cell_length_a  5.6387173805
_cell_length_b  5.6387173805
_cell_length_c  5.6387173805
_cell_angle_alpha  134.5576706569
_cell_angle_beta  134.5576706569
_cell_angle_gamma  66.2182617740
_symmetry_space_group_name_H-M  'P1'
_symmetry_Int_Tables_Number  1
loop_
_symmetry_equiv_pos_site_id
_symmetry_equiv_pos_as_xyz
  1  x,y,z
loop_
 _atom_site_label
 _atom_site_occupancy
 _atom_site_fract_x
 _atom_site_fract_y
 _atom_site_fract_z
 _atom_site_thermal_displace_type
 _atom_site_B_iso_or_equiv
 _atom_site_type_symbol
In1 1.0000000000 0.0000000000 0.0000000000 0.0000000000  Biso 1.0 In
In2 1.0000000000 0.7500000000 0.2500000000 0.5000000000  Biso 1.0 In
Li3 1.0000000000 0.5000000000 0.5000000000 0.0000000000  Biso 1.0 Li
Li4 1.0000000000 0.2500000000 0.7500000000 0.5000000000  Biso 1.0 Li
O5 1.0000000000 0.7680336889 0.7680336889 0.0000000000  Biso 1.0 O
O6 1.0000000000 0.5180336889 0.0180336889 0.5000000000  Biso 1.0 O
O7 1.0000000000 0.9819663111 0.4819663111 0.5000000000  Biso 1.0 O
O8 1.0000000000 0.2319663111 0.2319663111 0.0000000000  Biso 1.0 O
