# AFLOW.org Repositories
# In1Li1Te2   [BCT,BCT2,tI16] (STD_PRIM do
data_In1Li1Te2
_pd_phase_name In1Li1Te2
_cell_length_a  7.8677536893
_cell_length_b  7.8677536893
_cell_length_c  7.8677536893
_cell_angle_alpha  130.7661037231
_cell_angle_beta  130.7661037231
_cell_angle_gamma  72.1849555297
_symmetry_space_group_name_H-M  'P1'
_symmetry_Int_Tables_Number  1
loop_
_symmetry_equiv_pos_site_id
_symmetry_equiv_pos_as_xyz
  1  x,y,z
loop_
 _atom_site_label
 _atom_site_occupancy
 _atom_site_fract_x
 _atom_site_fract_y
 _atom_site_fract_z
 _atom_site_thermal_displace_type
 _atom_site_B_iso_or_equiv
 _atom_site_type_symbol
In1 1.0000000000 0.0000000000 0.0000000000 0.0000000000  Biso 1.0 In
In2 1.0000000000 0.7500000000 0.2500000000 0.5000000000  Biso 1.0 In
Li3 1.0000000000 0.5000000000 0.5000000000 0.0000000000  Biso 1.0 Li
Li4 1.0000000000 0.2500000000 0.7500000000 0.5000000000  Biso 1.0 Li
Te5 1.0000000000 0.3750000000 0.3810110983 0.5060110983  Biso 1.0 Te
Te6 1.0000000000 0.8750000000 0.8689889017 0.4939889017  Biso 1.0 Te
Te7 1.0000000000 0.6189889017 0.1250000000 0.9939889017  Biso 1.0 Te
Te8 1.0000000000 0.1310110983 0.6250000000 0.0060110983  Biso 1.0 Te
