# AFLOW.org Repositories
# In1Li1Se2   [ORC,ORC,oP16] (STD_PRIM doi
data_In1Li1Se2
_pd_phase_name In1Li1Se2
_cell_length_a  6.9226230060
_cell_length_b  7.3212153762
_cell_length_c  8.5560722139
_cell_angle_alpha  90.0000000000
_cell_angle_beta  90.0000000000
_cell_angle_gamma  90.0000000000
_symmetry_space_group_name_H-M  'P1'
_symmetry_Int_Tables_Number  1
loop_
_symmetry_equiv_pos_site_id
_symmetry_equiv_pos_as_xyz
  1  x,y,z
loop_
 _atom_site_label
 _atom_site_occupancy
 _atom_site_fract_x
 _atom_site_fract_y
 _atom_site_fract_z
 _atom_site_thermal_displace_type
 _atom_site_B_iso_or_equiv
 _atom_site_type_symbol
In1 1.0000000000 0.0000000000 0.0794036216 0.8735515184  Biso 1.0 In
In2 1.0000000000 0.5006111466 0.9205963784 0.1264484816  Biso 1.0 In
In3 1.0000000000 0.0000000000 0.5794036216 0.6264484816  Biso 1.0 In
In4 1.0000000000 0.5006111466 0.4205963784 0.3735515184  Biso 1.0 In
Li5 1.0000000000 0.0016859568 0.0874582512 0.3747616524  Biso 1.0 Li
Li6 1.0000000000 0.5016859568 0.9125417488 0.6252383476  Biso 1.0 Li
Li7 1.0000000000 0.0016859568 0.5874582512 0.1252383476  Biso 1.0 Li
Li8 1.0000000000 0.5016859568 0.4125417488 0.8747616524  Biso 1.0 Li
Se9 1.0000000000 0.3804030781 0.0804388460 0.8712906765  Biso 1.0 Se
Se10 1.0000000000 0.8804030781 0.9195611540 0.1287093235  Biso 1.0 Se
Se11 1.0000000000 0.3804030781 0.5804388460 0.6287093235  Biso 1.0 Se
Se12 1.0000000000 0.8804030781 0.4195611540 0.3712906765  Biso 1.0 Se
Se13 1.0000000000 0.8744998186 0.4171236468 0.8795510201  Biso 1.0 Se
Se14 1.0000000000 0.3744998186 0.5828763532 0.1204489799  Biso 1.0 Se
Se15 1.0000000000 0.8744998186 0.9171236468 0.6204489799  Biso 1.0 Se
Se16 1.0000000000 0.3744998186 0.0828763532 0.3795510201  Biso 1.0 Se
