# AFLOW.org Repositories
# In1Pd2   [ORC,ORC,oP12] (STD_PRIM doi:10
data_In1Pd2
_pd_phase_name In1Pd2
_cell_length_a  4.2527982667
_cell_length_b  5.6795865155
_cell_length_c  8.3183850730
_cell_angle_alpha  90.0000000000
_cell_angle_beta  90.0000000000
_cell_angle_gamma  90.0000000000
_symmetry_space_group_name_H-M  'P1'
_symmetry_Int_Tables_Number  1
loop_
_symmetry_equiv_pos_site_id
_symmetry_equiv_pos_as_xyz
  1  x,y,z
loop_
 _atom_site_label
 _atom_site_occupancy
 _atom_site_fract_x
 _atom_site_fract_y
 _atom_site_fract_z
 _atom_site_thermal_displace_type
 _atom_site_B_iso_or_equiv
 _atom_site_type_symbol
In1 1.0000000000 0.2500000000 0.8219626210 0.6004717788  Biso 1.0 In
In2 1.0000000000 0.7500000000 0.6780373790 0.1004717788  Biso 1.0 In
In3 1.0000000000 0.7500000000 0.1780373790 0.3995282212  Biso 1.0 In
In4 1.0000000000 0.2500000000 0.3219626210 0.8995282212  Biso 1.0 In
Pd5 1.0000000000 0.2500000000 0.8398055320 0.9279009223  Biso 1.0 Pd
Pd6 1.0000000000 0.7500000000 0.6601944680 0.4279009223  Biso 1.0 Pd
Pd7 1.0000000000 0.7500000000 0.1601944680 0.0720990777  Biso 1.0 Pd
Pd8 1.0000000000 0.2500000000 0.3398055320 0.5720990777  Biso 1.0 Pd
Pd9 1.0000000000 0.2500000000 0.9329177741 0.2691964432  Biso 1.0 Pd
Pd10 1.0000000000 0.7500000000 0.5670822259 0.7691964432  Biso 1.0 Pd
Pd11 1.0000000000 0.7500000000 0.0670822259 0.7308035568  Biso 1.0 Pd
Pd12 1.0000000000 0.2500000000 0.4329177741 0.2308035568  Biso 1.0 Pd
