# AFLOW.org Repositories
# In1Pt2Y1   [HEX,HEX,hP8] (STD_PRIM doi:1
data_In1Pt2Y1
_pd_phase_name In1Pt2Y1
_cell_length_a  4.5531012858
_cell_length_b  4.5531012858
_cell_length_c  9.0246038046
_cell_angle_alpha  90.0000000000
_cell_angle_beta  90.0000000000
_cell_angle_gamma  120.0000000000
_symmetry_space_group_name_H-M  'P1'
_symmetry_Int_Tables_Number  1
loop_
_symmetry_equiv_pos_site_id
_symmetry_equiv_pos_as_xyz
  1  x,y,z
loop_
 _atom_site_label
 _atom_site_occupancy
 _atom_site_fract_x
 _atom_site_fract_y
 _atom_site_fract_z
 _atom_site_thermal_displace_type
 _atom_site_B_iso_or_equiv
 _atom_site_type_symbol
In1 1.0000000000 0.0000000000 0.0000000000 0.0000000000  Biso 1.0 In
In2 1.0000000000 0.0000000000 0.0000000000 0.5000000000  Biso 1.0 In
Pt3 1.0000000000 0.6666781408 0.3333562817 0.5907403249  Biso 1.0 Pt
Pt4 1.0000000000 0.3333218592 0.6666437183 0.0907403249  Biso 1.0 Pt
Pt5 1.0000000000 0.3333218592 0.6666437183 0.4092596751  Biso 1.0 Pt
Pt6 1.0000000000 0.6666781408 0.3333562817 0.9092596751  Biso 1.0 Pt
Y7 1.0000000000 0.6666759322 0.3333518644 0.2500000000  Biso 1.0 Y
Y8 1.0000000000 0.3333240678 0.6666481356 0.7500000000  Biso 1.0 Y
