# AFLOW.org Repositories
# In1Rh1Y1   [HEX,HEX,hP9] (STD_PRIM doi:1
data_In1Rh1Y1
_pd_phase_name In1Rh1Y1
_cell_length_a  7.4918206693
_cell_length_b  7.4918206693
_cell_length_c  3.9351925400
_cell_angle_alpha  90.0000000000
_cell_angle_beta  90.0000000000
_cell_angle_gamma  120.0000000000
_symmetry_space_group_name_H-M  'P1'
_symmetry_Int_Tables_Number  1
loop_
_symmetry_equiv_pos_site_id
_symmetry_equiv_pos_as_xyz
  1  x,y,z
loop_
 _atom_site_label
 _atom_site_occupancy
 _atom_site_fract_x
 _atom_site_fract_y
 _atom_site_fract_z
 _atom_site_thermal_displace_type
 _atom_site_B_iso_or_equiv
 _atom_site_type_symbol
In1 1.0000000000 0.0000000000 0.7446286614 0.0000000000  Biso 1.0 In
In2 1.0000000000 0.2553713386 0.2553713386 0.0000000000  Biso 1.0 In
In3 1.0000000000 0.7446231804 0.0000000000 0.0000000000  Biso 1.0 In
Rh4 1.0000000000 0.0000000000 0.0000000000 0.5000000000  Biso 1.0 Rh
Rh5 1.0000000000 0.6666793439 0.3333495902 0.0000000000  Biso 1.0 Rh
Rh6 1.0000000000 0.3333297537 0.6666504098 0.0000000000  Biso 1.0 Rh
Y7 1.0000000000 0.0000000000 0.4070092565 0.5000000000  Biso 1.0 Y
Y8 1.0000000000 0.5929907435 0.5929907435 0.5000000000  Biso 1.0 Y
Y9 1.0000000000 0.4070110029 0.0000000000 0.5000000000  Biso 1.0 Y
