# AFLOW.org Repositories
# In1Sc2   [HEX,HEX,hP6] (STD_PRIM doi:10.
data_In1Sc2
_pd_phase_name In1Sc2
_cell_length_a  5.1141152532
_cell_length_b  5.1141152532
_cell_length_c  6.3830154024
_cell_angle_alpha  90.0000000000
_cell_angle_beta  90.0000000000
_cell_angle_gamma  120.0000000000
_symmetry_space_group_name_H-M  'P1'
_symmetry_Int_Tables_Number  1
loop_
_symmetry_equiv_pos_site_id
_symmetry_equiv_pos_as_xyz
  1  x,y,z
loop_
 _atom_site_label
 _atom_site_occupancy
 _atom_site_fract_x
 _atom_site_fract_y
 _atom_site_fract_z
 _atom_site_thermal_displace_type
 _atom_site_B_iso_or_equiv
 _atom_site_type_symbol
In1 1.0000000000 0.3333258921 0.6666741079 0.2500000000  Biso 1.0 In
In2 1.0000000000 0.6666741079 0.3333258921 0.7500000000  Biso 1.0 In
Sc3 1.0000000000 0.0000000000 0.0000000000 0.0000000000  Biso 1.0 Sc
Sc4 1.0000000000 0.0000000000 0.0000000000 0.5000000000  Biso 1.0 Sc
Sc5 1.0000000000 0.3333231042 0.6666768958 0.7500000000  Biso 1.0 Sc
Sc6 1.0000000000 0.6666768958 0.3333231042 0.2500000000  Biso 1.0 Sc
