# AFLOW.org Repositories
# In1Sc3   [HEX,HEX,hP8] (STD_PRIM doi:10.
data_In1Sc3
_pd_phase_name In1Sc3
_cell_length_a  6.5237960622
_cell_length_b  6.5237960622
_cell_length_c  5.3073728130
_cell_angle_alpha  90.0000000000
_cell_angle_beta  90.0000000000
_cell_angle_gamma  120.0000000000
_symmetry_space_group_name_H-M  'P1'
_symmetry_Int_Tables_Number  1
loop_
_symmetry_equiv_pos_site_id
_symmetry_equiv_pos_as_xyz
  1  x,y,z
loop_
 _atom_site_label
 _atom_site_occupancy
 _atom_site_fract_x
 _atom_site_fract_y
 _atom_site_fract_z
 _atom_site_thermal_displace_type
 _atom_site_B_iso_or_equiv
 _atom_site_type_symbol
In1 1.0000000000 0.6666713163 0.3333426326 0.2500000000  Biso 1.0 In
In2 1.0000000000 0.3333286837 0.6666573674 0.7500000000  Biso 1.0 In
Sc3 1.0000000000 0.1681867907 0.3363735814 0.2500000000  Biso 1.0 Sc
Sc4 1.0000000000 0.6636259878 0.8318171677 0.2500000000  Biso 1.0 Sc
Sc5 1.0000000000 0.1681911799 0.8318171677 0.2500000000  Biso 1.0 Sc
Sc6 1.0000000000 0.8318132093 0.6636264186 0.7500000000  Biso 1.0 Sc
Sc7 1.0000000000 0.3363740122 0.1681828323 0.7500000000  Biso 1.0 Sc
Sc8 1.0000000000 0.8318088201 0.1681828323 0.7500000000  Biso 1.0 Sc
