# AFLOW.org Repositories
# In1Te2Tl1   [BCT,BCT1,tI16] (STD_PRIM do
data_In1Te2Tl1
_pd_phase_name In1Te2Tl1
_cell_length_a  7.1163217298
_cell_length_b  7.1163217298
_cell_length_c  7.1163217298
_cell_angle_alpha  105.1574517231
_cell_angle_beta  105.1574517231
_cell_angle_gamma  118.4932382944
_symmetry_space_group_name_H-M  'P1'
_symmetry_Int_Tables_Number  1
loop_
_symmetry_equiv_pos_site_id
_symmetry_equiv_pos_as_xyz
  1  x,y,z
loop_
 _atom_site_label
 _atom_site_occupancy
 _atom_site_fract_x
 _atom_site_fract_y
 _atom_site_fract_z
 _atom_site_thermal_displace_type
 _atom_site_B_iso_or_equiv
 _atom_site_type_symbol
In1 1.0000000000 0.7500000000 0.2500000000 0.5000000000  Biso 1.0 In
In2 1.0000000000 0.2500000000 0.7500000000 0.5000000000  Biso 1.0 In
Te3 1.0000000000 0.1800609181 0.6800609181 0.8601218362  Biso 1.0 Te
Te4 1.0000000000 0.8199390819 0.3199390819 0.1398781638  Biso 1.0 Te
Te5 1.0000000000 0.3199390819 0.1800609181 0.5000000000  Biso 1.0 Te
Te6 1.0000000000 0.6800609181 0.8199390819 0.5000000000  Biso 1.0 Te
Tl7 1.0000000000 0.7500000000 0.7500000000 0.0000000000  Biso 1.0 Tl
Tl8 1.0000000000 0.2500000000 0.2500000000 0.0000000000  Biso 1.0 Tl
