# AFLOW.org Repositories
# In2Ir1Sr1   [ORCC,ORCC,oS16] (STD_PRIM d
data_In2Ir1Sr1
_pd_phase_name In2Ir1Sr1
_cell_length_a  5.9210594354
_cell_length_b  5.9210594354
_cell_length_c  8.1253216900
_cell_angle_alpha  90.0000000000
_cell_angle_beta  90.0000000000
_cell_angle_gamma  137.2098727075
_symmetry_space_group_name_H-M  'P1'
_symmetry_Int_Tables_Number  1
loop_
_symmetry_equiv_pos_site_id
_symmetry_equiv_pos_as_xyz
  1  x,y,z
loop_
 _atom_site_label
 _atom_site_occupancy
 _atom_site_fract_x
 _atom_site_fract_y
 _atom_site_fract_z
 _atom_site_thermal_displace_type
 _atom_site_B_iso_or_equiv
 _atom_site_type_symbol
In1 1.0000000000 0.3452090170 0.6547909830 0.9469270652  Biso 1.0 In
In2 1.0000000000 0.6547909830 0.3452090170 0.4469270652  Biso 1.0 In
In3 1.0000000000 0.3452090170 0.6547909830 0.5530729348  Biso 1.0 In
In4 1.0000000000 0.6547909830 0.3452090170 0.0530729348  Biso 1.0 In
Ir5 1.0000000000 0.7807645798 0.2192354202 0.7500000000  Biso 1.0 Ir
Ir6 1.0000000000 0.2192354202 0.7807645798 0.2500000000  Biso 1.0 Ir
Sr7 1.0000000000 0.0607358041 0.9392641959 0.7500000000  Biso 1.0 Sr
Sr8 1.0000000000 0.9392641959 0.0607358041 0.2500000000  Biso 1.0 Sr
