# AFLOW.org Repositories
# In2Mg1S4   [FCC,FCC,cF56] (STD_PRIM doi:
data_In2Mg1S4
_pd_phase_name In2Mg1S4
_cell_length_a  7.6801350899
_cell_length_b  7.6801350899
_cell_length_c  7.6801350899
_cell_angle_alpha  60.0000000000
_cell_angle_beta  60.0000000000
_cell_angle_gamma  60.0000000000
_symmetry_space_group_name_H-M  'P1'
_symmetry_Int_Tables_Number  1
loop_
_symmetry_equiv_pos_site_id
_symmetry_equiv_pos_as_xyz
  1  x,y,z
loop_
 _atom_site_label
 _atom_site_occupancy
 _atom_site_fract_x
 _atom_site_fract_y
 _atom_site_fract_z
 _atom_site_thermal_displace_type
 _atom_site_B_iso_or_equiv
 _atom_site_type_symbol
In1 1.0000000000 0.1250000000 0.6250000000 0.6250000000  Biso 1.0 In
In2 1.0000000000 0.6250000000 0.1250000000 0.6250000000  Biso 1.0 In
In3 1.0000000000 0.6250000000 0.6250000000 0.1250000000  Biso 1.0 In
In4 1.0000000000 0.6250000000 0.6250000000 0.6250000000  Biso 1.0 In
Mg5 1.0000000000 0.0000000000 0.0000000000 0.0000000000  Biso 1.0 Mg
Mg6 1.0000000000 0.2500000000 0.2500000000 0.2500000000  Biso 1.0 Mg
S7 1.0000000000 0.8530851659 0.3823049447 0.3823049447  Biso 1.0 S
S8 1.0000000000 0.3823049447 0.8530851659 0.3823049447  Biso 1.0 S
S9 1.0000000000 0.3823049447 0.3823049447 0.8530851659  Biso 1.0 S
S10 1.0000000000 0.3823049447 0.3823049447 0.3823049447  Biso 1.0 S
S11 1.0000000000 0.8676950553 0.3969148341 0.8676950553  Biso 1.0 S
S12 1.0000000000 0.3969148341 0.8676950553 0.8676950553  Biso 1.0 S
S13 1.0000000000 0.8676950553 0.8676950553 0.3969148341  Biso 1.0 S
S14 1.0000000000 0.8676950553 0.8676950553 0.8676950553  Biso 1.0 S
