# AFLOW.org Repositories
# In2Pt3   [HEX,HEX,hP20] (STD_PRIM doi:10
data_In2Pt3
_pd_phase_name In2Pt3
_cell_length_a  5.6237923804
_cell_length_b  5.6237923804
_cell_length_c  13.8019252206
_cell_angle_alpha  90.0000000000
_cell_angle_beta  90.0000000000
_cell_angle_gamma  120.0000000000
_symmetry_space_group_name_H-M  'P1'
_symmetry_Int_Tables_Number  1
loop_
_symmetry_equiv_pos_site_id
_symmetry_equiv_pos_as_xyz
  1  x,y,z
loop_
 _atom_site_label
 _atom_site_occupancy
 _atom_site_fract_x
 _atom_site_fract_y
 _atom_site_fract_z
 _atom_site_thermal_displace_type
 _atom_site_B_iso_or_equiv
 _atom_site_type_symbol
In1 1.0000000000 0.0000000000 0.0000000000 0.2500000000  Biso 1.0 In
In2 1.0000000000 0.0000000000 0.0000000000 0.7500000000  Biso 1.0 In
In3 1.0000000000 0.3333397280 0.6666602720 0.2500000000  Biso 1.0 In
In4 1.0000000000 0.6666602720 0.3333397280 0.7500000000  Biso 1.0 In
In5 1.0000000000 0.3333329785 0.6666664663 0.9178979434  Biso 1.0 In
In6 1.0000000000 0.3333335337 0.6666670215 0.5821020566  Biso 1.0 In
In7 1.0000000000 0.6666670215 0.3333335337 0.0821020566  Biso 1.0 In
In8 1.0000000000 0.6666664663 0.3333329785 0.4178979434  Biso 1.0 In
Pt9 1.0000000000 0.1657041800 0.3314024062 0.0906510236  Biso 1.0 Pt
Pt10 1.0000000000 0.6685976620 0.8343027413 0.0906510515  Biso 1.0 Pt
Pt11 1.0000000000 0.1657019332 0.8342913001 0.0906528009  Biso 1.0 Pt
Pt12 1.0000000000 0.6685975938 0.8342958200 0.4093489764  Biso 1.0 Pt
Pt13 1.0000000000 0.1656972587 0.3314023380 0.4093489485  Biso 1.0 Pt
Pt14 1.0000000000 0.1657086999 0.8342980668 0.4093471991  Biso 1.0 Pt
Pt15 1.0000000000 0.8342958200 0.6685975938 0.9093489764  Biso 1.0 Pt
Pt16 1.0000000000 0.3314023380 0.1656972587 0.9093489485  Biso 1.0 Pt
Pt17 1.0000000000 0.8342980668 0.1657086999 0.9093471991  Biso 1.0 Pt
Pt18 1.0000000000 0.3314024062 0.1657041800 0.5906510236  Biso 1.0 Pt
Pt19 1.0000000000 0.8343027413 0.6685976620 0.5906510515  Biso 1.0 Pt
Pt20 1.0000000000 0.8342913001 0.1657019332 0.5906528009  Biso 1.0 Pt
