# AFLOW.org Repositories
# In2Rh1Yb1   [ORCC,ORCC,oS16] (STD_PRIM d
data_In2Rh1Yb1
_pd_phase_name In2Rh1Yb1
_cell_length_a  5.5933378269
_cell_length_b  5.5933378269
_cell_length_c  8.2223875305
_cell_angle_alpha  90.0000000000
_cell_angle_beta  90.0000000000
_cell_angle_gamma  135.6553405618
_symmetry_space_group_name_H-M  'P1'
_symmetry_Int_Tables_Number  1
loop_
_symmetry_equiv_pos_site_id
_symmetry_equiv_pos_as_xyz
  1  x,y,z
loop_
 _atom_site_label
 _atom_site_occupancy
 _atom_site_fract_x
 _atom_site_fract_y
 _atom_site_fract_z
 _atom_site_thermal_displace_type
 _atom_site_B_iso_or_equiv
 _atom_site_type_symbol
In1 1.0000000000 0.6463863386 0.3536136614 0.9488313193  Biso 1.0 In
In2 1.0000000000 0.3536136614 0.6463863386 0.4488313193  Biso 1.0 In
In3 1.0000000000 0.6463863386 0.3536136614 0.5511686807  Biso 1.0 In
In4 1.0000000000 0.3536136614 0.6463863386 0.0511686807  Biso 1.0 In
Rh5 1.0000000000 0.2193110725 0.7806889275 0.7500000000  Biso 1.0 Rh
Rh6 1.0000000000 0.7806889275 0.2193110725 0.2500000000  Biso 1.0 Rh
Yb7 1.0000000000 0.9349409140 0.0650590860 0.7500000000  Biso 1.0 Yb
Yb8 1.0000000000 0.0650590860 0.9349409140 0.2500000000  Biso 1.0 Yb
