# AFLOW.org Repositories
# In2S5Zn2   [HEX,HEX,hP18] (STD_PRIM doi:
data_In2S5Zn2
_pd_phase_name In2S5Zn2
_cell_length_a  3.8904487925
_cell_length_b  3.8904487925
_cell_length_c  30.7229409496
_cell_angle_alpha  90.0000000000
_cell_angle_beta  90.0000000000
_cell_angle_gamma  120.0000000000
_symmetry_space_group_name_H-M  'P1'
_symmetry_Int_Tables_Number  1
loop_
_symmetry_equiv_pos_site_id
_symmetry_equiv_pos_as_xyz
  1  x,y,z
loop_
 _atom_site_label
 _atom_site_occupancy
 _atom_site_fract_x
 _atom_site_fract_y
 _atom_site_fract_z
 _atom_site_thermal_displace_type
 _atom_site_B_iso_or_equiv
 _atom_site_type_symbol
In1 1.0000000000 0.0000000000 0.0000000000 0.1880596196  Biso 1.0 In
In2 1.0000000000 0.0000000000 0.0000000000 0.6880596196  Biso 1.0 In
In3 1.0000000000 0.6666694763 0.3333347381 0.4182936578  Biso 1.0 In
In4 1.0000000000 0.3333305237 0.6666652619 0.9182936578  Biso 1.0 In
S5 1.0000000000 0.3333200658 0.6666600329 0.0455898954  Biso 1.0 S
S6 1.0000000000 0.6666799342 0.3333399671 0.5455898954  Biso 1.0 S
S7 1.0000000000 0.6666650822 0.3333325411 0.1459319196  Biso 1.0 S
S8 1.0000000000 0.3333349178 0.6666674589 0.6459319196  Biso 1.0 S
S9 1.0000000000 0.3333332863 0.6666666432 0.2367399187  Biso 1.0 S
S10 1.0000000000 0.6666667137 0.3333333568 0.7367399187  Biso 1.0 S
S11 1.0000000000 0.6666786999 0.3333393499 0.3366696684  Biso 1.0 S
S12 1.0000000000 0.3333213001 0.6666606501 0.8366696684  Biso 1.0 S
S13 1.0000000000 0.3333383072 0.6666691536 0.4525464085  Biso 1.0 S
S14 1.0000000000 0.6666616928 0.3333308464 0.9525464085  Biso 1.0 S
Zn15 1.0000000000 0.6666558565 0.3333279283 0.0651508705  Biso 1.0 Zn
Zn16 1.0000000000 0.3333441435 0.6666720717 0.5651508705  Biso 1.0 Zn
Zn17 1.0000000000 0.3333430090 0.6666715045 0.3090180415  Biso 1.0 Zn
Zn18 1.0000000000 0.6666569910 0.3333284955 0.8090180415  Biso 1.0 Zn
