# AFLOW.org Repositories
# In3Ni2   [HEX,HEX,hP5] (STD_PRIM doi:10.
data_In3Ni2
_pd_phase_name In3Ni2
_cell_length_a  4.3954495706
_cell_length_b  4.3954495706
_cell_length_c  5.2966333818
_cell_angle_alpha  90.0000000000
_cell_angle_beta  90.0000000000
_cell_angle_gamma  120.0000000000
_symmetry_space_group_name_H-M  'P1'
_symmetry_Int_Tables_Number  1
loop_
_symmetry_equiv_pos_site_id
_symmetry_equiv_pos_as_xyz
  1  x,y,z
loop_
 _atom_site_label
 _atom_site_occupancy
 _atom_site_fract_x
 _atom_site_fract_y
 _atom_site_fract_z
 _atom_site_thermal_displace_type
 _atom_site_B_iso_or_equiv
 _atom_site_type_symbol
In1 1.0000000000 0.0000000000 0.0000000000 0.0000000000  Biso 1.0 In
In2 1.0000000000 0.3333357327 0.6666678664 0.6479652054  Biso 1.0 In
In3 1.0000000000 0.6666642673 0.3333321336 0.3520347946  Biso 1.0 In
Ni4 1.0000000000 0.3333399727 0.6666699864 0.1431650559  Biso 1.0 Ni
Ni5 1.0000000000 0.6666600273 0.3333300136 0.8568349441  Biso 1.0 Ni
