# AFLOW.org Repositories
# In3Pd2   [HEX,HEX,hP5] (STD_PRIM doi:10.
data_In3Pd2
_pd_phase_name In3Pd2
_cell_length_a  4.5848963924
_cell_length_b  4.5848963924
_cell_length_c  5.5778956445
_cell_angle_alpha  90.0000000000
_cell_angle_beta  90.0000000000
_cell_angle_gamma  120.0000000000
_symmetry_space_group_name_H-M  'P1'
_symmetry_Int_Tables_Number  1
loop_
_symmetry_equiv_pos_site_id
_symmetry_equiv_pos_as_xyz
  1  x,y,z
loop_
 _atom_site_label
 _atom_site_occupancy
 _atom_site_fract_x
 _atom_site_fract_y
 _atom_site_fract_z
 _atom_site_thermal_displace_type
 _atom_site_B_iso_or_equiv
 _atom_site_type_symbol
In1 1.0000000000 0.0000000000 0.0000000000 0.0000000000  Biso 1.0 In
In2 1.0000000000 0.6666604487 0.3333207538 0.6458165515  Biso 1.0 In
In3 1.0000000000 0.3333395513 0.6666792462 0.3541834485  Biso 1.0 In
Pd4 1.0000000000 0.6666676587 0.3333352810 0.1508526374  Biso 1.0 Pd
Pd5 1.0000000000 0.3333323413 0.6666647190 0.8491473626  Biso 1.0 Pd
