# AFLOW.org Repositories
# In7Pt3   [BCC,BCC,cI40] (STD_PRIM doi:10
data_In7Pt3
_pd_phase_name In7Pt3
_cell_length_a  8.2460379330
_cell_length_b  8.2460379330
_cell_length_c  8.2460379330
_cell_angle_alpha  109.4712206345
_cell_angle_beta  109.4712206345
_cell_angle_gamma  109.4712206345
_symmetry_space_group_name_H-M  'P1'
_symmetry_Int_Tables_Number  1
loop_
_symmetry_equiv_pos_site_id
_symmetry_equiv_pos_as_xyz
  1  x,y,z
loop_
 _atom_site_label
 _atom_site_occupancy
 _atom_site_fract_x
 _atom_site_fract_y
 _atom_site_fract_z
 _atom_site_thermal_displace_type
 _atom_site_B_iso_or_equiv
 _atom_site_type_symbol
In1 1.0000000000 0.2500000000 0.7500000000 0.5000000000  Biso 1.0 In
In2 1.0000000000 0.7500000000 0.2500000000 0.5000000000  Biso 1.0 In
In3 1.0000000000 0.5000000000 0.7500000000 0.2500000000  Biso 1.0 In
In4 1.0000000000 0.5000000000 0.2500000000 0.7500000000  Biso 1.0 In
In5 1.0000000000 0.7500000000 0.5000000000 0.2500000000  Biso 1.0 In
In6 1.0000000000 0.2500000000 0.5000000000 0.7500000000  Biso 1.0 In
In7 1.0000000000 0.6738485417 0.0000000000 0.0000000000  Biso 1.0 In
In8 1.0000000000 0.0000000000 0.0000000000 0.6738485417  Biso 1.0 In
In9 1.0000000000 0.3261514583 0.3261514583 0.3261514583  Biso 1.0 In
In10 1.0000000000 0.0000000000 0.6738485417 0.0000000000  Biso 1.0 In
In11 1.0000000000 0.0000000000 0.0000000000 0.3261514583  Biso 1.0 In
In12 1.0000000000 0.3261514583 0.0000000000 0.0000000000  Biso 1.0 In
In13 1.0000000000 0.6738485417 0.6738485417 0.6738485417  Biso 1.0 In
In14 1.0000000000 0.0000000000 0.3261514583 0.0000000000  Biso 1.0 In
Pt15 1.0000000000 0.6556535022 0.6556535022 0.0000000000  Biso 1.0 Pt
Pt16 1.0000000000 0.3443464978 0.3443464978 0.0000000000  Biso 1.0 Pt
Pt17 1.0000000000 0.0000000000 0.3443464978 0.3443464978  Biso 1.0 Pt
Pt18 1.0000000000 0.0000000000 0.6556535022 0.6556535022  Biso 1.0 Pt
Pt19 1.0000000000 0.6556535022 0.0000000000 0.6556535022  Biso 1.0 Pt
Pt20 1.0000000000 0.3443464978 0.0000000000 0.3443464978  Biso 1.0 Pt
