# AFLOW.org Repositories
# In9K1Ni2   [HEX,HEX,hP12] (STD_PRIM doi:
data_In9K1Ni2
_pd_phase_name In9K1Ni2
_cell_length_a  8.8447669435
_cell_length_b  8.8447669435
_cell_length_c  4.3525954452
_cell_angle_alpha  90.0000000000
_cell_angle_beta  90.0000000000
_cell_angle_gamma  120.0000000000
_symmetry_space_group_name_H-M  'P1'
_symmetry_Int_Tables_Number  1
loop_
_symmetry_equiv_pos_site_id
_symmetry_equiv_pos_as_xyz
  1  x,y,z
loop_
 _atom_site_label
 _atom_site_occupancy
 _atom_site_fract_x
 _atom_site_fract_y
 _atom_site_fract_z
 _atom_site_thermal_displace_type
 _atom_site_B_iso_or_equiv
 _atom_site_type_symbol
In1 1.0000000000 0.2091526867 0.4182842392 0.5000000000  Biso 1.0 In
In2 1.0000000000 0.5817157608 0.7908473133 0.5000000000  Biso 1.0 In
In3 1.0000000000 0.2091073071 0.7908926929 0.5000000000  Biso 1.0 In
In4 1.0000000000 0.7908473133 0.5817157608 0.5000000000  Biso 1.0 In
In5 1.0000000000 0.4182842392 0.2091526867 0.5000000000  Biso 1.0 In
In6 1.0000000000 0.7908926929 0.2091073071 0.5000000000  Biso 1.0 In
In7 1.0000000000 0.0000000000 0.5000000000 0.0000000000  Biso 1.0 In
In8 1.0000000000 0.5000000000 0.5000000000 0.0000000000  Biso 1.0 In
In9 1.0000000000 0.5000000000 0.0000000000 0.0000000000  Biso 1.0 In
K10 1.0000000000 0.0000000000 0.0000000000 0.0000000000  Biso 1.0 K
Ni11 1.0000000000 0.3333043078 0.6666956922 0.0000000000  Biso 1.0 Ni
Ni12 1.0000000000 0.6666956922 0.3333043078 0.0000000000  Biso 1.0 Ni
