# AFLOW.org Repositories
# Ir1Mg1Tb4   [FCC,FCC,cF96] (STD_PRIM doi
data_Ir1Mg1Tb4
_pd_phase_name Ir1Mg1Tb4
_cell_length_a  9.7227375614
_cell_length_b  9.7227375614
_cell_length_c  9.7227375614
_cell_angle_alpha  60.0000000000
_cell_angle_beta  60.0000000000
_cell_angle_gamma  60.0000000000
_symmetry_space_group_name_H-M  'P1'
_symmetry_Int_Tables_Number  1
loop_
_symmetry_equiv_pos_site_id
_symmetry_equiv_pos_as_xyz
  1  x,y,z
loop_
 _atom_site_label
 _atom_site_occupancy
 _atom_site_fract_x
 _atom_site_fract_y
 _atom_site_fract_z
 _atom_site_thermal_displace_type
 _atom_site_B_iso_or_equiv
 _atom_site_type_symbol
Ir1 1.0000000000 0.1414107713 0.1414107713 0.1414107713  Biso 1.0 Ir
Ir2 1.0000000000 0.1414107713 0.1414107713 0.5757676862  Biso 1.0 Ir
Ir3 1.0000000000 0.5757676862 0.1414107713 0.1414107713  Biso 1.0 Ir
Ir4 1.0000000000 0.1414107713 0.5757676862 0.1414107713  Biso 1.0 Ir
Mg5 1.0000000000 0.5795348250 0.5795348250 0.5795348250  Biso 1.0 Mg
Mg6 1.0000000000 0.5795348250 0.5795348250 0.2613955251  Biso 1.0 Mg
Mg7 1.0000000000 0.2613955251 0.5795348250 0.5795348250  Biso 1.0 Mg
Mg8 1.0000000000 0.5795348250 0.2613955251 0.5795348250  Biso 1.0 Mg
Tb9 1.0000000000 0.5636371654 0.9363628346 0.5636371654  Biso 1.0 Tb
Tb10 1.0000000000 0.9363628346 0.5636371654 0.9363628346  Biso 1.0 Tb
Tb11 1.0000000000 0.9363628346 0.5636371654 0.5636371654  Biso 1.0 Tb
Tb12 1.0000000000 0.5636371654 0.9363628346 0.9363628346  Biso 1.0 Tb
Tb13 1.0000000000 0.5636371654 0.5636371654 0.9363628346  Biso 1.0 Tb
Tb14 1.0000000000 0.9363628346 0.9363628346 0.5636371654  Biso 1.0 Tb
Tb15 1.0000000000 0.1877204478 0.8122795522 0.1877204478  Biso 1.0 Tb
Tb16 1.0000000000 0.8122795522 0.1877204478 0.8122795522  Biso 1.0 Tb
Tb17 1.0000000000 0.8122795522 0.1877204478 0.1877204478  Biso 1.0 Tb
Tb18 1.0000000000 0.1877204478 0.8122795522 0.8122795522  Biso 1.0 Tb
Tb19 1.0000000000 0.1877204478 0.1877204478 0.8122795522  Biso 1.0 Tb
Tb20 1.0000000000 0.8122795522 0.8122795522 0.1877204478  Biso 1.0 Tb
Tb21 1.0000000000 0.3459621000 0.3459621000 0.3459621000  Biso 1.0 Tb
Tb22 1.0000000000 0.3459621000 0.3459621000 0.9621137000  Biso 1.0 Tb
Tb23 1.0000000000 0.9621137000 0.3459621000 0.3459621000  Biso 1.0 Tb
Tb24 1.0000000000 0.3459621000 0.9621137000 0.3459621000  Biso 1.0 Tb
