# AFLOW.org Repositories
# Ir1Mn1Si1   [ORC,ORC,oP12] (STD_PRIM doi
data_Ir1Mn1Si1
_pd_phase_name Ir1Mn1Si1
_cell_length_a  3.9368147968
_cell_length_b  6.4159680838
_cell_length_c  7.0880046486
_cell_angle_alpha  90.0000000000
_cell_angle_beta  90.0000000000
_cell_angle_gamma  90.0000000000
_symmetry_space_group_name_H-M  'P1'
_symmetry_Int_Tables_Number  1
loop_
_symmetry_equiv_pos_site_id
_symmetry_equiv_pos_as_xyz
  1  x,y,z
loop_
 _atom_site_label
 _atom_site_occupancy
 _atom_site_fract_x
 _atom_site_fract_y
 _atom_site_fract_z
 _atom_site_thermal_displace_type
 _atom_site_B_iso_or_equiv
 _atom_site_type_symbol
Ir1 1.0000000000 0.2500000000 0.1601617768 0.4408462730  Biso 1.0 Ir
Ir2 1.0000000000 0.7500000000 0.3398382232 0.9408462730  Biso 1.0 Ir
Ir3 1.0000000000 0.7500000000 0.8398382232 0.5591537270  Biso 1.0 Ir
Ir4 1.0000000000 0.2500000000 0.6601617768 0.0591537270  Biso 1.0 Ir
Mn5 1.0000000000 0.2500000000 0.0196190628 0.8261657801  Biso 1.0 Mn
Mn6 1.0000000000 0.7500000000 0.4803809372 0.3261657801  Biso 1.0 Mn
Mn7 1.0000000000 0.7500000000 0.9803809372 0.1738342199  Biso 1.0 Mn
Mn8 1.0000000000 0.2500000000 0.5196190628 0.6738342199  Biso 1.0 Mn
Si9 1.0000000000 0.2500000000 0.7894739029 0.3739827954  Biso 1.0 Si
Si10 1.0000000000 0.7500000000 0.7105260971 0.8739827954  Biso 1.0 Si
Si11 1.0000000000 0.7500000000 0.2105260971 0.6260172046  Biso 1.0 Si
Si12 1.0000000000 0.2500000000 0.2894739029 0.1260172046  Biso 1.0 Si
