# AFLOW.org Repositories
# Ir1Mn3Si1   [CUB,CUB,cP20] (STD_PRIM doi
data_Ir1Mn3Si1
_pd_phase_name Ir1Mn3Si1
_cell_length_a  6.7519979963
_cell_length_b  6.7519979963
_cell_length_c  6.7519979963
_cell_angle_alpha  90.0000000000
_cell_angle_beta  90.0000000000
_cell_angle_gamma  90.0000000000
_symmetry_space_group_name_H-M  'P1'
_symmetry_Int_Tables_Number  1
loop_
_symmetry_equiv_pos_site_id
_symmetry_equiv_pos_as_xyz
  1  x,y,z
loop_
 _atom_site_label
 _atom_site_occupancy
 _atom_site_fract_x
 _atom_site_fract_y
 _atom_site_fract_z
 _atom_site_thermal_displace_type
 _atom_site_B_iso_or_equiv
 _atom_site_type_symbol
Ir1 1.0000000000 0.3227579138 0.3227579138 0.6772420862  Biso 1.0 Ir
Ir2 1.0000000000 0.1772420862 0.6772420862 0.1772420862  Biso 1.0 Ir
Ir3 1.0000000000 0.6772420862 0.8227579138 0.8227579138  Biso 1.0 Ir
Ir4 1.0000000000 0.8227579138 0.1772420862 0.3227579138  Biso 1.0 Ir
Mn5 1.0000000000 0.8805780326 0.7929157019 0.4557512388  Biso 1.0 Mn
Mn6 1.0000000000 0.6194219674 0.2070842981 0.9557512388  Biso 1.0 Mn
Mn7 1.0000000000 0.1194219674 0.2929157019 0.0442487612  Biso 1.0 Mn
Mn8 1.0000000000 0.3805780326 0.7070842981 0.5442487612  Biso 1.0 Mn
Mn9 1.0000000000 0.5442487612 0.8805780326 0.2070842981  Biso 1.0 Mn
Mn10 1.0000000000 0.0442487612 0.6194219674 0.7929157019  Biso 1.0 Mn
Mn11 1.0000000000 0.9557512388 0.1194219674 0.7070842981  Biso 1.0 Mn
Mn12 1.0000000000 0.4557512388 0.3805780326 0.2929157019  Biso 1.0 Mn
Mn13 1.0000000000 0.7929157019 0.5442487612 0.1194219674  Biso 1.0 Mn
Mn14 1.0000000000 0.2070842981 0.0442487612 0.3805780326  Biso 1.0 Mn
Mn15 1.0000000000 0.2929157019 0.9557512388 0.8805780326  Biso 1.0 Mn
Mn16 1.0000000000 0.7070842981 0.4557512388 0.6194219674  Biso 1.0 Mn
Si17 1.0000000000 0.9317731193 0.9317731193 0.0682268807  Biso 1.0 Si
Si18 1.0000000000 0.5682268807 0.0682268807 0.5682268807  Biso 1.0 Si
Si19 1.0000000000 0.0682268807 0.4317731193 0.4317731193  Biso 1.0 Si
Si20 1.0000000000 0.4317731193 0.5682268807 0.9317731193  Biso 1.0 Si
