# AFLOW.org Repositories
# Ir1Nb1Si1   [ORC,ORC,oP12] (STD_PRIM doi
data_Ir1Nb1Si1
_pd_phase_name Ir1Nb1Si1
_cell_length_a  3.8000221939
_cell_length_b  6.4542617249
_cell_length_c  7.2992612389
_cell_angle_alpha  90.0000000000
_cell_angle_beta  90.0000000000
_cell_angle_gamma  90.0000000000
_symmetry_space_group_name_H-M  'P1'
_symmetry_Int_Tables_Number  1
loop_
_symmetry_equiv_pos_site_id
_symmetry_equiv_pos_as_xyz
  1  x,y,z
loop_
 _atom_site_label
 _atom_site_occupancy
 _atom_site_fract_x
 _atom_site_fract_y
 _atom_site_fract_z
 _atom_site_thermal_displace_type
 _atom_site_B_iso_or_equiv
 _atom_site_type_symbol
Ir1 1.0000000000 0.2500000000 0.3547699657 0.5637986094  Biso 1.0 Ir
Ir2 1.0000000000 0.7500000000 0.1452300343 0.0637986094  Biso 1.0 Ir
Ir3 1.0000000000 0.7500000000 0.6452300343 0.4362013906  Biso 1.0 Ir
Ir4 1.0000000000 0.2500000000 0.8547699657 0.9362013906  Biso 1.0 Ir
Nb5 1.0000000000 0.2500000000 0.9766230412 0.3273419323  Biso 1.0 Nb
Nb6 1.0000000000 0.7500000000 0.5233769588 0.8273419323  Biso 1.0 Nb
Nb7 1.0000000000 0.7500000000 0.0233769588 0.6726580677  Biso 1.0 Nb
Nb8 1.0000000000 0.2500000000 0.4766230412 0.1726580677  Biso 1.0 Nb
Si9 1.0000000000 0.2500000000 0.7290563123 0.6238259430  Biso 1.0 Si
Si10 1.0000000000 0.7500000000 0.7709436877 0.1238259430  Biso 1.0 Si
Si11 1.0000000000 0.7500000000 0.2709436877 0.3761740570  Biso 1.0 Si
Si12 1.0000000000 0.2500000000 0.2290563123 0.8761740570  Biso 1.0 Si
