# AFLOW.org Repositories
# Ir1N2   [ORC,ORC,oP6] (STD_PRIM doi:10.1
data_Ir1N2
_pd_phase_name Ir1N2
_cell_length_a  2.7760637948
_cell_length_b  4.0778681173
_cell_length_c  4.9230276057
_cell_angle_alpha  90.0000000000
_cell_angle_beta  90.0000000000
_cell_angle_gamma  90.0000000000
_symmetry_space_group_name_H-M  'P1'
_symmetry_Int_Tables_Number  1
loop_
_symmetry_equiv_pos_site_id
_symmetry_equiv_pos_as_xyz
  1  x,y,z
loop_
 _atom_site_label
 _atom_site_occupancy
 _atom_site_fract_x
 _atom_site_fract_y
 _atom_site_fract_z
 _atom_site_thermal_displace_type
 _atom_site_B_iso_or_equiv
 _atom_site_type_symbol
Ir1 1.0000000000 0.0000000000 0.0000000000 0.0000000000  Biso 1.0 Ir
Ir2 1.0000000000 0.5000000000 0.5000000000 0.5000000000  Biso 1.0 Ir
N3 1.0000000000 0.0000000000 0.1274262430 0.5900183247  Biso 1.0 N
N4 1.0000000000 0.0000000000 0.8725737570 0.4099816753  Biso 1.0 N
N5 1.0000000000 0.5000000000 0.3725737570 0.0900183247  Biso 1.0 N
N6 1.0000000000 0.5000000000 0.6274262430 0.9099816753  Biso 1.0 N
