# AFLOW.org Repositories
# Ir1O2   [TET,TET,tP6] (STD_PRIM doi:10.1
data_Ir1O2
_pd_phase_name Ir1O2
_cell_length_a  4.5457556443
_cell_length_b  4.5457556443
_cell_length_c  3.1754791329
_cell_angle_alpha  90.0000000000
_cell_angle_beta  90.0000000000
_cell_angle_gamma  90.0000000000
_symmetry_space_group_name_H-M  'P1'
_symmetry_Int_Tables_Number  1
loop_
_symmetry_equiv_pos_site_id
_symmetry_equiv_pos_as_xyz
  1  x,y,z
loop_
 _atom_site_label
 _atom_site_occupancy
 _atom_site_fract_x
 _atom_site_fract_y
 _atom_site_fract_z
 _atom_site_thermal_displace_type
 _atom_site_B_iso_or_equiv
 _atom_site_type_symbol
Ir1 1.0000000000 0.0000000000 0.0000000000 0.0000000000  Biso 1.0 Ir
Ir2 1.0000000000 0.5000000000 0.5000000000 0.5000000000  Biso 1.0 Ir
O3 1.0000000000 0.3078031802 0.3078031802 0.0000000000  Biso 1.0 O
O4 1.0000000000 0.6921968198 0.6921968198 0.0000000000  Biso 1.0 O
O5 1.0000000000 0.1921968198 0.8078031802 0.5000000000  Biso 1.0 O
O6 1.0000000000 0.8078031802 0.1921968198 0.5000000000  Biso 1.0 O
