# AFLOW.org Repositories
# Ir1P1Sr1   [CUB,CUB,cP12] (STD_PRIM doi:
data_Ir1P1Sr1
_pd_phase_name Ir1P1Sr1
_cell_length_a  6.3459832035
_cell_length_b  6.3459832035
_cell_length_c  6.3459832035
_cell_angle_alpha  90.0000000000
_cell_angle_beta  90.0000000000
_cell_angle_gamma  90.0000000000
_symmetry_space_group_name_H-M  'P1'
_symmetry_Int_Tables_Number  1
loop_
_symmetry_equiv_pos_site_id
_symmetry_equiv_pos_as_xyz
  1  x,y,z
loop_
 _atom_site_label
 _atom_site_occupancy
 _atom_site_fract_x
 _atom_site_fract_y
 _atom_site_fract_z
 _atom_site_thermal_displace_type
 _atom_site_B_iso_or_equiv
 _atom_site_type_symbol
Ir1 1.0000000000 0.5919023126 0.5919023126 0.4080976874  Biso 1.0 Ir
Ir2 1.0000000000 0.9080976874 0.4080976874 0.9080976874  Biso 1.0 Ir
Ir3 1.0000000000 0.4080976874 0.0919023126 0.0919023126  Biso 1.0 Ir
Ir4 1.0000000000 0.0919023126 0.9080976874 0.5919023126  Biso 1.0 Ir
P5 1.0000000000 0.1603038607 0.1603038607 0.8396961393  Biso 1.0 P
P6 1.0000000000 0.3396961393 0.8396961393 0.3396961393  Biso 1.0 P
P7 1.0000000000 0.8396961393 0.6603038607 0.6603038607  Biso 1.0 P
P8 1.0000000000 0.6603038607 0.3396961393 0.1603038607  Biso 1.0 P
Sr9 1.0000000000 0.8790875268 0.8790875268 0.1209124732  Biso 1.0 Sr
Sr10 1.0000000000 0.6209124732 0.1209124732 0.6209124732  Biso 1.0 Sr
Sr11 1.0000000000 0.1209124732 0.3790875268 0.3790875268  Biso 1.0 Sr
Sr12 1.0000000000 0.3790875268 0.6209124732 0.8790875268  Biso 1.0 Sr
