# AFLOW.org Repositories
# Ir1P3   [BCC,BCC,cI32] (STD_PRIM doi:10.
data_Ir1P3
_pd_phase_name Ir1P3
_cell_length_a  6.9789625117
_cell_length_b  6.9789625117
_cell_length_c  6.9789625117
_cell_angle_alpha  109.4712206345
_cell_angle_beta  109.4712206345
_cell_angle_gamma  109.4712206345
_symmetry_space_group_name_H-M  'P1'
_symmetry_Int_Tables_Number  1
loop_
_symmetry_equiv_pos_site_id
_symmetry_equiv_pos_as_xyz
  1  x,y,z
loop_
 _atom_site_label
 _atom_site_occupancy
 _atom_site_fract_x
 _atom_site_fract_y
 _atom_site_fract_z
 _atom_site_thermal_displace_type
 _atom_site_B_iso_or_equiv
 _atom_site_type_symbol
Ir1 1.0000000000 0.0000000000 0.5000000000 0.0000000000  Biso 1.0 Ir
Ir2 1.0000000000 0.0000000000 0.0000000000 0.5000000000  Biso 1.0 Ir
Ir3 1.0000000000 0.5000000000 0.5000000000 0.5000000000  Biso 1.0 Ir
Ir4 1.0000000000 0.5000000000 0.0000000000 0.0000000000  Biso 1.0 Ir
P5 1.0000000000 0.6452995886 0.1396404203 0.7849400089  Biso 1.0 P
P6 1.0000000000 0.3547004114 0.1396404203 0.4943408317  Biso 1.0 P
P7 1.0000000000 0.6452995886 0.8603595797 0.5056591683  Biso 1.0 P
P8 1.0000000000 0.3547004114 0.8603595797 0.2150599911  Biso 1.0 P
P9 1.0000000000 0.1396404203 0.4943408317 0.3547004114  Biso 1.0 P
P10 1.0000000000 0.1396404203 0.7849400089 0.6452995886  Biso 1.0 P
P11 1.0000000000 0.8603595797 0.2150599911 0.3547004114  Biso 1.0 P
P12 1.0000000000 0.8603595797 0.5056591683 0.6452995886  Biso 1.0 P
P13 1.0000000000 0.2150599911 0.3547004114 0.8603595797  Biso 1.0 P
P14 1.0000000000 0.5056591683 0.6452995886 0.8603595797  Biso 1.0 P
P15 1.0000000000 0.4943408317 0.3547004114 0.1396404203  Biso 1.0 P
P16 1.0000000000 0.7849400089 0.6452995886 0.1396404203  Biso 1.0 P
