# AFLOW.org Repositories
# Ir1P2   [MCL,MCL,mP12] (STD_PRIM doi:10.
data_Ir1P2
_pd_phase_name Ir1P2
_cell_length_a  5.8217542701
_cell_length_b  5.7722519454
_cell_length_c  5.8793672913
_cell_angle_alpha  68.5083844809
_cell_angle_beta  90.0000000000
_cell_angle_gamma  90.0000000000
_symmetry_space_group_name_H-M  'P1'
_symmetry_Int_Tables_Number  1
loop_
_symmetry_equiv_pos_site_id
_symmetry_equiv_pos_as_xyz
  1  x,y,z
loop_
 _atom_site_label
 _atom_site_occupancy
 _atom_site_fract_x
 _atom_site_fract_y
 _atom_site_fract_z
 _atom_site_thermal_displace_type
 _atom_site_B_iso_or_equiv
 _atom_site_type_symbol
Ir1 1.0000000000 0.0011412145 0.7281696881 0.2914845189  Biso 1.0 Ir
Ir2 1.0000000000 0.5011746290 0.2718371290 0.2085121622  Biso 1.0 Ir
Ir3 1.0000000000 0.9988587855 0.2718303119 0.7085154811  Biso 1.0 Ir
Ir4 1.0000000000 0.4988253710 0.7281628710 0.7914878378  Biso 1.0 Ir
P5 1.0000000000 0.3765496972 0.6657283389 0.1883319765  Biso 1.0 P
P6 1.0000000000 0.8766304770 0.3342621508 0.3116534697  Biso 1.0 P
P7 1.0000000000 0.6234503028 0.3342716611 0.8116680235  Biso 1.0 P
P8 1.0000000000 0.1233695230 0.6657378492 0.6883465303  Biso 1.0 P
P9 1.0000000000 0.6190925775 0.8415426293 0.3707082902  Biso 1.0 P
P10 1.0000000000 0.1191934452 0.1584398634 0.1292976201  Biso 1.0 P
P11 1.0000000000 0.3809074225 0.1584573707 0.6292917098  Biso 1.0 P
P12 1.0000000000 0.8808065548 0.8415601366 0.8707023799  Biso 1.0 P
