# AFLOW.org Repositories
# Ir1P1Se1   [CUB,CUB,cP12] (STD_PRIM doi:
data_Ir1P1Se1
_pd_phase_name Ir1P1Se1
_cell_length_a  5.8489633266
_cell_length_b  5.8489633266
_cell_length_c  5.8489633266
_cell_angle_alpha  90.0000000000
_cell_angle_beta  90.0000000000
_cell_angle_gamma  90.0000000000
_symmetry_space_group_name_H-M  'P1'
_symmetry_Int_Tables_Number  1
loop_
_symmetry_equiv_pos_site_id
_symmetry_equiv_pos_as_xyz
  1  x,y,z
loop_
 _atom_site_label
 _atom_site_occupancy
 _atom_site_fract_x
 _atom_site_fract_y
 _atom_site_fract_z
 _atom_site_thermal_displace_type
 _atom_site_B_iso_or_equiv
 _atom_site_type_symbol
Ir1 1.0000000000 0.9856442265 0.9856442265 0.0143557735  Biso 1.0 Ir
Ir2 1.0000000000 0.5143557735 0.0143557735 0.5143557735  Biso 1.0 Ir
Ir3 1.0000000000 0.0143557735 0.4856442265 0.4856442265  Biso 1.0 Ir
Ir4 1.0000000000 0.4856442265 0.5143557735 0.9856442265  Biso 1.0 Ir
P5 1.0000000000 0.3852373965 0.3852373965 0.6147626035  Biso 1.0 P
P6 1.0000000000 0.1147626035 0.6147626035 0.1147626035  Biso 1.0 P
P7 1.0000000000 0.6147626035 0.8852373965 0.8852373965  Biso 1.0 P
P8 1.0000000000 0.8852373965 0.1147626035 0.3852373965  Biso 1.0 P
Se9 1.0000000000 0.6153952544 0.6153952544 0.3846047456  Biso 1.0 Se
Se10 1.0000000000 0.8846047456 0.3846047456 0.8846047456  Biso 1.0 Se
Se11 1.0000000000 0.3846047456 0.1153952544 0.1153952544  Biso 1.0 Se
Se12 1.0000000000 0.1153952544 0.8846047456 0.6153952544  Biso 1.0 Se
