# AFLOW.org Repositories
# Ir1Si1Ta1   [ORC,ORC,oP12] (STD_PRIM doi
data_Ir1Si1Ta1
_pd_phase_name Ir1Si1Ta1
_cell_length_a  3.8049172478
_cell_length_b  6.4321072620
_cell_length_c  7.3073726792
_cell_angle_alpha  90.0000000000
_cell_angle_beta  90.0000000000
_cell_angle_gamma  90.0000000000
_symmetry_space_group_name_H-M  'P1'
_symmetry_Int_Tables_Number  1
loop_
_symmetry_equiv_pos_site_id
_symmetry_equiv_pos_as_xyz
  1  x,y,z
loop_
 _atom_site_label
 _atom_site_occupancy
 _atom_site_fract_x
 _atom_site_fract_y
 _atom_site_fract_z
 _atom_site_thermal_displace_type
 _atom_site_B_iso_or_equiv
 _atom_site_type_symbol
Ir1 1.0000000000 0.2500000000 0.3554963517 0.5655811872  Biso 1.0 Ir
Ir2 1.0000000000 0.7500000000 0.1445036483 0.0655811872  Biso 1.0 Ir
Ir3 1.0000000000 0.7500000000 0.6445036483 0.4344188128  Biso 1.0 Ir
Ir4 1.0000000000 0.2500000000 0.8554963517 0.9344188128  Biso 1.0 Ir
Si5 1.0000000000 0.2500000000 0.7305320725 0.6232788564  Biso 1.0 Si
Si6 1.0000000000 0.7500000000 0.7694679275 0.1232788564  Biso 1.0 Si
Si7 1.0000000000 0.7500000000 0.2694679275 0.3767211436  Biso 1.0 Si
Si8 1.0000000000 0.2500000000 0.2305320725 0.8767211436  Biso 1.0 Si
Ta9 1.0000000000 0.2500000000 0.9765174486 0.3274459953  Biso 1.0 Ta
Ta10 1.0000000000 0.7500000000 0.5234825514 0.8274459953  Biso 1.0 Ta
Ta11 1.0000000000 0.7500000000 0.0234825514 0.6725540047  Biso 1.0 Ta
Ta12 1.0000000000 0.2500000000 0.4765174486 0.1725540047  Biso 1.0 Ta
