# AFLOW.org Repositories
# Ir1Sn4   [ORCC,ORCC,oS20] (STD_PRIM doi:
data_Ir1Sn4
_pd_phase_name Ir1Sn4
_cell_length_a  6.7275208709
_cell_length_b  6.7275208709
_cell_length_c  6.4458572733
_cell_angle_alpha  90.0000000000
_cell_angle_beta  90.0000000000
_cell_angle_gamma  122.4955492240
_symmetry_space_group_name_H-M  'P1'
_symmetry_Int_Tables_Number  1
loop_
_symmetry_equiv_pos_site_id
_symmetry_equiv_pos_as_xyz
  1  x,y,z
loop_
 _atom_site_label
 _atom_site_occupancy
 _atom_site_fract_x
 _atom_site_fract_y
 _atom_site_fract_z
 _atom_site_thermal_displace_type
 _atom_site_B_iso_or_equiv
 _atom_site_type_symbol
Ir1 1.0000000000 0.0000000000 0.0000000000 0.0000000000  Biso 1.0 Ir
Ir2 1.0000000000 0.5000000000 0.5000000000 0.5000000000  Biso 1.0 Ir
Sn3 1.0000000000 0.4499927690 0.1988481233 0.8251533460  Biso 1.0 Sn
Sn4 1.0000000000 0.8011518767 0.5500072310 0.1748466540  Biso 1.0 Sn
Sn5 1.0000000000 0.3011518767 0.0500072310 0.3251533460  Biso 1.0 Sn
Sn6 1.0000000000 0.9499927690 0.6988481233 0.6748466540  Biso 1.0 Sn
Sn7 1.0000000000 0.0500072310 0.3011518767 0.6748466540  Biso 1.0 Sn
Sn8 1.0000000000 0.6988481233 0.9499927690 0.3251533460  Biso 1.0 Sn
Sn9 1.0000000000 0.1988481233 0.4499927690 0.1748466540  Biso 1.0 Sn
Sn10 1.0000000000 0.5500072310 0.8011518767 0.8251533460  Biso 1.0 Sn
