# AFLOW.org Repositories
# Ir1Sb3   [BCC,BCC,cI32] (STD_PRIM doi:10
data_Ir1Sb3
_pd_phase_name Ir1Sb3
_cell_length_a  8.1071033127
_cell_length_b  8.1071033127
_cell_length_c  8.1071033127
_cell_angle_alpha  109.4712206345
_cell_angle_beta  109.4712206345
_cell_angle_gamma  109.4712206345
_symmetry_space_group_name_H-M  'P1'
_symmetry_Int_Tables_Number  1
loop_
_symmetry_equiv_pos_site_id
_symmetry_equiv_pos_as_xyz
  1  x,y,z
loop_
 _atom_site_label
 _atom_site_occupancy
 _atom_site_fract_x
 _atom_site_fract_y
 _atom_site_fract_z
 _atom_site_thermal_displace_type
 _atom_site_B_iso_or_equiv
 _atom_site_type_symbol
Ir1 1.0000000000 0.0000000000 0.0000000000 0.5000000000  Biso 1.0 Ir
Ir2 1.0000000000 0.5000000000 0.5000000000 0.5000000000  Biso 1.0 Ir
Ir3 1.0000000000 0.0000000000 0.5000000000 0.0000000000  Biso 1.0 Ir
Ir4 1.0000000000 0.5000000000 0.0000000000 0.0000000000  Biso 1.0 Ir
Sb5 1.0000000000 0.8458135816 0.1854785127 0.3396649311  Biso 1.0 Sb
Sb6 1.0000000000 0.8458135816 0.5061486506 0.6603350689  Biso 1.0 Sb
Sb7 1.0000000000 0.1541864184 0.4938513494 0.3396649311  Biso 1.0 Sb
Sb8 1.0000000000 0.1541864184 0.8145214873 0.6603350689  Biso 1.0 Sb
Sb9 1.0000000000 0.8145214873 0.6603350689 0.1541864184  Biso 1.0 Sb
Sb10 1.0000000000 0.4938513494 0.3396649311 0.1541864184  Biso 1.0 Sb
Sb11 1.0000000000 0.5061486506 0.6603350689 0.8458135816  Biso 1.0 Sb
Sb12 1.0000000000 0.1854785127 0.3396649311 0.8458135816  Biso 1.0 Sb
Sb13 1.0000000000 0.3396649311 0.1541864184 0.4938513494  Biso 1.0 Sb
Sb14 1.0000000000 0.6603350689 0.1541864184 0.8145214873  Biso 1.0 Sb
Sb15 1.0000000000 0.3396649311 0.8458135816 0.1854785127  Biso 1.0 Sb
Sb16 1.0000000000 0.6603350689 0.8458135816 0.5061486506  Biso 1.0 Sb
