# AFLOW.org Repositories
# Ir1Si1Y1   [ORC,ORC,oP12] (STD_PRIM doi:
data_Ir1Si1Y1
_pd_phase_name Ir1Si1Y1
_cell_length_a  4.2313967715
_cell_length_b  6.8633280531
_cell_length_c  7.4156477136
_cell_angle_alpha  90.0000000000
_cell_angle_beta  90.0000000000
_cell_angle_gamma  90.0000000000
_symmetry_space_group_name_H-M  'P1'
_symmetry_Int_Tables_Number  1
loop_
_symmetry_equiv_pos_site_id
_symmetry_equiv_pos_as_xyz
  1  x,y,z
loop_
 _atom_site_label
 _atom_site_occupancy
 _atom_site_fract_x
 _atom_site_fract_y
 _atom_site_fract_z
 _atom_site_thermal_displace_type
 _atom_site_B_iso_or_equiv
 _atom_site_type_symbol
Ir1 1.0000000000 0.2500000000 0.1562395600 0.9310949896  Biso 1.0 Ir
Ir2 1.0000000000 0.7500000000 0.3437604400 0.4310949896  Biso 1.0 Ir
Ir3 1.0000000000 0.7500000000 0.8437604400 0.0689050104  Biso 1.0 Ir
Ir4 1.0000000000 0.2500000000 0.6562395600 0.5689050104  Biso 1.0 Ir
Si5 1.0000000000 0.2500000000 0.2997298152 0.6065476072  Biso 1.0 Si
Si6 1.0000000000 0.7500000000 0.2002701848 0.1065476072  Biso 1.0 Si
Si7 1.0000000000 0.7500000000 0.7002701848 0.3934523928  Biso 1.0 Si
Si8 1.0000000000 0.2500000000 0.7997298152 0.8934523928  Biso 1.0 Si
Y9 1.0000000000 0.2500000000 0.0000000000 0.3124337577  Biso 1.0 Y
Y10 1.0000000000 0.7500000000 0.4995779478 0.8124337577  Biso 1.0 Y
Y11 1.0000000000 0.7500000000 0.0000000000 0.6875662423  Biso 1.0 Y
Y12 1.0000000000 0.2500000000 0.5004220522 0.1875662423  Biso 1.0 Y
