# AFLOW.org Repositories
# Ir1Sn1Zr1   [HEX,HEX,hP9] (STD_PRIM doi:
data_Ir1Sn1Zr1
_pd_phase_name Ir1Sn1Zr1
_cell_length_a  7.3896977066
_cell_length_b  7.3896977066
_cell_length_c  3.7370113963
_cell_angle_alpha  90.0000000000
_cell_angle_beta  90.0000000000
_cell_angle_gamma  120.0000000000
_symmetry_space_group_name_H-M  'P1'
_symmetry_Int_Tables_Number  1
loop_
_symmetry_equiv_pos_site_id
_symmetry_equiv_pos_as_xyz
  1  x,y,z
loop_
 _atom_site_label
 _atom_site_occupancy
 _atom_site_fract_x
 _atom_site_fract_y
 _atom_site_fract_z
 _atom_site_thermal_displace_type
 _atom_site_B_iso_or_equiv
 _atom_site_type_symbol
Ir1 1.0000000000 0.0000000000 0.0000000000 0.5000000000  Biso 1.0 Ir
Ir2 1.0000000000 0.6666725450 0.3333469579 0.0000000000  Biso 1.0 Ir
Ir3 1.0000000000 0.3333255871 0.6666530421 0.0000000000  Biso 1.0 Ir
Sn4 1.0000000000 0.0000000000 0.7327994509 0.0000000000  Biso 1.0 Sn
Sn5 1.0000000000 0.2672005491 0.2672005491 0.0000000000  Biso 1.0 Sn
Sn6 1.0000000000 0.7327892189 0.0000000000 0.0000000000  Biso 1.0 Sn
Zr7 1.0000000000 0.0000000000 0.3967873986 0.5000000000  Biso 1.0 Zr
Zr8 1.0000000000 0.6032126014 0.6032126014 0.5000000000  Biso 1.0 Zr
Zr9 1.0000000000 0.3967914937 0.0000000000 0.5000000000  Biso 1.0 Zr
