# AFLOW.org Repositories
# Ir1Sb1Se1   [CUB,CUB,cP12] (STD_PRIM doi
data_Ir1Sb1Se1
_pd_phase_name Ir1Sb1Se1
_cell_length_a  6.2472569881
_cell_length_b  6.2472569881
_cell_length_c  6.2472569881
_cell_angle_alpha  90.0000000000
_cell_angle_beta  90.0000000000
_cell_angle_gamma  90.0000000000
_symmetry_space_group_name_H-M  'P1'
_symmetry_Int_Tables_Number  1
loop_
_symmetry_equiv_pos_site_id
_symmetry_equiv_pos_as_xyz
  1  x,y,z
loop_
 _atom_site_label
 _atom_site_occupancy
 _atom_site_fract_x
 _atom_site_fract_y
 _atom_site_fract_z
 _atom_site_thermal_displace_type
 _atom_site_B_iso_or_equiv
 _atom_site_type_symbol
Ir1 1.0000000000 0.0047887602 0.0047887602 0.9952112398  Biso 1.0 Ir
Ir2 1.0000000000 0.4952112398 0.9952112398 0.4952112398  Biso 1.0 Ir
Ir3 1.0000000000 0.9952112398 0.5047887602 0.5047887602  Biso 1.0 Ir
Ir4 1.0000000000 0.5047887602 0.4952112398 0.0047887602  Biso 1.0 Ir
Sb5 1.0000000000 0.3753581524 0.3753581524 0.6246418476  Biso 1.0 Sb
Sb6 1.0000000000 0.1246418476 0.6246418476 0.1246418476  Biso 1.0 Sb
Sb7 1.0000000000 0.6246418476 0.8753581524 0.8753581524  Biso 1.0 Sb
Sb8 1.0000000000 0.8753581524 0.1246418476 0.3753581524  Biso 1.0 Sb
Se9 1.0000000000 0.6205256653 0.6205256653 0.3794743347  Biso 1.0 Se
Se10 1.0000000000 0.8794743347 0.3794743347 0.8794743347  Biso 1.0 Se
Se11 1.0000000000 0.3794743347 0.1205256653 0.1205256653  Biso 1.0 Se
Se12 1.0000000000 0.1205256653 0.8794743347 0.6205256653  Biso 1.0 Se
