# AFLOW.org Repositories
# Ir1S1Sb1   [CUB,CUB,cP12] (STD_PRIM doi:
data_Ir1S1Sb1
_pd_phase_name Ir1S1Sb1
_cell_length_a  6.0918577091
_cell_length_b  6.0918577091
_cell_length_c  6.0918577091
_cell_angle_alpha  90.0000000000
_cell_angle_beta  90.0000000000
_cell_angle_gamma  90.0000000000
_symmetry_space_group_name_H-M  'P1'
_symmetry_Int_Tables_Number  1
loop_
_symmetry_equiv_pos_site_id
_symmetry_equiv_pos_as_xyz
  1  x,y,z
loop_
 _atom_site_label
 _atom_site_occupancy
 _atom_site_fract_x
 _atom_site_fract_y
 _atom_site_fract_z
 _atom_site_thermal_displace_type
 _atom_site_B_iso_or_equiv
 _atom_site_type_symbol
Ir1 1.0000000000 0.9868755976 0.9868755976 0.0131244024  Biso 1.0 Ir
Ir2 1.0000000000 0.5131244024 0.0131244024 0.5131244024  Biso 1.0 Ir
Ir3 1.0000000000 0.0131244024 0.4868755976 0.4868755976  Biso 1.0 Ir
Ir4 1.0000000000 0.4868755976 0.5131244024 0.9868755976  Biso 1.0 Ir
S5 1.0000000000 0.3837450878 0.3837450878 0.6162549122  Biso 1.0 S
S6 1.0000000000 0.1162549122 0.6162549122 0.1162549122  Biso 1.0 S
S7 1.0000000000 0.6162549122 0.8837450878 0.8837450878  Biso 1.0 S
S8 1.0000000000 0.8837450878 0.1162549122 0.3837450878  Biso 1.0 S
Sb9 1.0000000000 0.6231230548 0.6231230548 0.3768769452  Biso 1.0 Sb
Sb10 1.0000000000 0.8768769452 0.3768769452 0.8768769452  Biso 1.0 Sb
Sb11 1.0000000000 0.3768769452 0.1231230548 0.1231230548  Biso 1.0 Sb
Sb12 1.0000000000 0.1231230548 0.8768769452 0.6231230548  Biso 1.0 Sb
