# AFLOW.org Repositories
# Ir1Sc2   [FCC,FCC,cF96] (STD_PRIM doi:10
data_Ir1Sc2
_pd_phase_name Ir1Sc2
_cell_length_a  8.8022649224
_cell_length_b  8.8022649224
_cell_length_c  8.8022649224
_cell_angle_alpha  60.0000000000
_cell_angle_beta  60.0000000000
_cell_angle_gamma  60.0000000000
_symmetry_space_group_name_H-M  'P1'
_symmetry_Int_Tables_Number  1
loop_
_symmetry_equiv_pos_site_id
_symmetry_equiv_pos_as_xyz
  1  x,y,z
loop_
 _atom_site_label
 _atom_site_occupancy
 _atom_site_fract_x
 _atom_site_fract_y
 _atom_site_fract_z
 _atom_site_thermal_displace_type
 _atom_site_B_iso_or_equiv
 _atom_site_type_symbol
Ir1 1.0000000000 0.7833372018 0.7833372018 0.6499883946  Biso 1.0 Ir
Ir2 1.0000000000 0.7833372018 0.7833372018 0.2833372018  Biso 1.0 Ir
Ir3 1.0000000000 0.7833372018 0.1499883946 0.2833372018  Biso 1.0 Ir
Ir4 1.0000000000 0.1499883946 0.7833372018 0.2833372018  Biso 1.0 Ir
Ir5 1.0000000000 0.2166627982 0.2166627982 0.7166627982  Biso 1.0 Ir
Ir6 1.0000000000 0.2166627982 0.2166627982 0.3500116054  Biso 1.0 Ir
Ir7 1.0000000000 0.2166627982 0.8500116054 0.7166627982  Biso 1.0 Ir
Ir8 1.0000000000 0.8500116054 0.2166627982 0.7166627982  Biso 1.0 Ir
Sc9 1.0000000000 0.0000000000 0.0000000000 0.0000000000  Biso 1.0 Sc
Sc10 1.0000000000 0.0000000000 0.0000000000 0.5000000000  Biso 1.0 Sc
Sc11 1.0000000000 0.0000000000 0.5000000000 0.5000000000  Biso 1.0 Sc
Sc12 1.0000000000 0.5000000000 0.0000000000 0.5000000000  Biso 1.0 Sc
Sc13 1.0000000000 0.1874713193 0.5625286807 0.6874713193  Biso 1.0 Sc
Sc14 1.0000000000 0.5625286807 0.1874713193 0.0625286807  Biso 1.0 Sc
Sc15 1.0000000000 0.5625286807 0.1874713193 0.6874713193  Biso 1.0 Sc
Sc16 1.0000000000 0.1874713193 0.5625286807 0.0625286807  Biso 1.0 Sc
Sc17 1.0000000000 0.5625286807 0.5625286807 0.6874713193  Biso 1.0 Sc
Sc18 1.0000000000 0.1874713193 0.1874713193 0.0625286807  Biso 1.0 Sc
Sc19 1.0000000000 0.8125286807 0.4374713193 0.9374713193  Biso 1.0 Sc
Sc20 1.0000000000 0.4374713193 0.8125286807 0.3125286807  Biso 1.0 Sc
Sc21 1.0000000000 0.4374713193 0.8125286807 0.9374713193  Biso 1.0 Sc
Sc22 1.0000000000 0.8125286807 0.4374713193 0.3125286807  Biso 1.0 Sc
Sc23 1.0000000000 0.4374713193 0.4374713193 0.3125286807  Biso 1.0 Sc
Sc24 1.0000000000 0.8125286807 0.8125286807 0.9374713193  Biso 1.0 Sc
