# AFLOW.org Repositories
# Ir1W1   [ORC,ORC,oP4] (STD_PRIM doi:10.1
data_Ir1W1
_pd_phase_name Ir1W1
_cell_length_a  2.7803480093
_cell_length_b  4.4770243716
_cell_length_c  4.8491446955
_cell_angle_alpha  90.0000000000
_cell_angle_beta  90.0000000000
_cell_angle_gamma  90.0000000000
_symmetry_space_group_name_H-M  'P1'
_symmetry_Int_Tables_Number  1
loop_
_symmetry_equiv_pos_site_id
_symmetry_equiv_pos_as_xyz
  1  x,y,z
loop_
 _atom_site_label
 _atom_site_occupancy
 _atom_site_fract_x
 _atom_site_fract_y
 _atom_site_fract_z
 _atom_site_thermal_displace_type
 _atom_site_B_iso_or_equiv
 _atom_site_type_symbol
Ir1 1.0000000000 0.5000000000 0.2500000000 0.3241047634  Biso 1.0 Ir
Ir2 1.0000000000 0.5000000000 0.7500000000 0.6758952366  Biso 1.0 Ir
W3 1.0000000000 0.0000000000 0.2500000000 0.8257208613  Biso 1.0 W
W4 1.0000000000 0.0000000000 0.7500000000 0.1742791387  Biso 1.0 W
