# AFLOW.org Repositories
# Ir1Zr3   [BCT,BCT1,tI32] (STD_PRIM doi:1
data_Ir1Zr3
_pd_phase_name Ir1Zr3
_cell_length_a  8.1427088649
_cell_length_b  8.1427088649
_cell_length_c  8.1427088649
_cell_angle_alpha  97.0658287253
_cell_angle_beta  97.0658287253
_cell_angle_gamma  138.9363891705
_symmetry_space_group_name_H-M  'P1'
_symmetry_Int_Tables_Number  1
loop_
_symmetry_equiv_pos_site_id
_symmetry_equiv_pos_as_xyz
  1  x,y,z
loop_
 _atom_site_label
 _atom_site_occupancy
 _atom_site_fract_x
 _atom_site_fract_y
 _atom_site_fract_z
 _atom_site_thermal_displace_type
 _atom_site_B_iso_or_equiv
 _atom_site_type_symbol
Ir1 1.0000000000 0.7076904015 0.0000000000 0.7076904015  Biso 1.0 Ir
Ir2 1.0000000000 0.2923095985 0.0000000000 0.2923095985  Biso 1.0 Ir
Ir3 1.0000000000 0.0000000000 0.7076904015 0.7076904015  Biso 1.0 Ir
Ir4 1.0000000000 0.0000000000 0.2923095985 0.2923095985  Biso 1.0 Ir
Zr5 1.0000000000 0.1452997980 0.5000000000 0.6452997980  Biso 1.0 Zr
Zr6 1.0000000000 0.8547002020 0.5000000000 0.3547002020  Biso 1.0 Zr
Zr7 1.0000000000 0.5000000000 0.1452997980 0.6452997980  Biso 1.0 Zr
Zr8 1.0000000000 0.5000000000 0.8547002020 0.3547002020  Biso 1.0 Zr
Zr9 1.0000000000 0.1668578282 0.3589522124 0.0000000000  Biso 1.0 Zr
Zr10 1.0000000000 0.3589522124 0.1668578282 0.0000000000  Biso 1.0 Zr
Zr11 1.0000000000 0.6410477876 0.6410477876 0.8079056158  Biso 1.0 Zr
Zr12 1.0000000000 0.8331421718 0.8331421718 0.1920943842  Biso 1.0 Zr
Zr13 1.0000000000 0.9579462344 0.5478123173 0.0000000000  Biso 1.0 Zr
Zr14 1.0000000000 0.5478123173 0.9579462344 0.0000000000  Biso 1.0 Zr
Zr15 1.0000000000 0.4521876827 0.4521876827 0.4101339171  Biso 1.0 Zr
Zr16 1.0000000000 0.0420537656 0.0420537656 0.5898660829  Biso 1.0 Zr
