# AFLOW.org Repositories
# Ir2La5   [MCLC,MCLC1,mS28] (STD_PRIM doi
data_Ir2La5
_pd_phase_name Ir2La5
_cell_length_a  9.2985977919
_cell_length_b  9.2985977919
_cell_length_c  7.4741474395
_cell_angle_alpha  83.6325035835
_cell_angle_beta  83.6325035835
_cell_angle_gamma  42.9488164191
_symmetry_space_group_name_H-M  'P1'
_symmetry_Int_Tables_Number  1
loop_
_symmetry_equiv_pos_site_id
_symmetry_equiv_pos_as_xyz
  1  x,y,z
loop_
 _atom_site_label
 _atom_site_occupancy
 _atom_site_fract_x
 _atom_site_fract_y
 _atom_site_fract_z
 _atom_site_thermal_displace_type
 _atom_site_B_iso_or_equiv
 _atom_site_type_symbol
Ir1 1.0000000000 0.4095224472 0.8136924961 0.9189385301  Biso 1.0 Ir
Ir2 1.0000000000 0.1863075039 0.5904775528 0.5810614699  Biso 1.0 Ir
Ir3 1.0000000000 0.5904775528 0.1863075039 0.0810614699  Biso 1.0 Ir
Ir4 1.0000000000 0.8136924961 0.4095224472 0.4189385301  Biso 1.0 Ir
La5 1.0000000000 0.1927155141 0.9956590966 0.5818739777  Biso 1.0 La
La6 1.0000000000 0.0043409034 0.8072844859 0.9181260223  Biso 1.0 La
La7 1.0000000000 0.8072844859 0.0043409034 0.4181260223  Biso 1.0 La
La8 1.0000000000 0.9956590966 0.1927155141 0.0818739777  Biso 1.0 La
La9 1.0000000000 0.7878289983 0.6407496273 0.6831046661  Biso 1.0 La
La10 1.0000000000 0.3592503727 0.2121710017 0.8168953339  Biso 1.0 La
La11 1.0000000000 0.2121710017 0.3592503727 0.3168953339  Biso 1.0 La
La12 1.0000000000 0.6407496273 0.7878289983 0.1831046661  Biso 1.0 La
La13 1.0000000000 0.5689316868 0.4310683132 0.7500000000  Biso 1.0 La
La14 1.0000000000 0.4310683132 0.5689316868 0.2500000000  Biso 1.0 La
