# AFLOW.org Repositories
# Ir2S3Sn3   [CUB,CUB,cP32] (STD_PRIM doi:
data_Ir2S3Sn3
_pd_phase_name Ir2S3Sn3
_cell_length_a  8.9355271905
_cell_length_b  8.9355271905
_cell_length_c  8.9355271905
_cell_angle_alpha  90.0000000000
_cell_angle_beta  90.0000000000
_cell_angle_gamma  90.0000000000
_symmetry_space_group_name_H-M  'P1'
_symmetry_Int_Tables_Number  1
loop_
_symmetry_equiv_pos_site_id
_symmetry_equiv_pos_as_xyz
  1  x,y,z
loop_
 _atom_site_label
 _atom_site_occupancy
 _atom_site_fract_x
 _atom_site_fract_y
 _atom_site_fract_z
 _atom_site_thermal_displace_type
 _atom_site_B_iso_or_equiv
 _atom_site_type_symbol
Ir1 1.0000000000 0.7206373512 0.7206373512 0.2793626488  Biso 1.0 Ir
Ir2 1.0000000000 0.2793626488 0.2793626488 0.2793626488  Biso 1.0 Ir
Ir3 1.0000000000 0.2793626488 0.7206373512 0.7206373512  Biso 1.0 Ir
Ir4 1.0000000000 0.7206373512 0.2793626488 0.7206373512  Biso 1.0 Ir
Ir5 1.0000000000 0.2793626488 0.2793626488 0.7206373512  Biso 1.0 Ir
Ir6 1.0000000000 0.7206373512 0.7206373512 0.7206373512  Biso 1.0 Ir
Ir7 1.0000000000 0.7206373512 0.2793626488 0.2793626488  Biso 1.0 Ir
Ir8 1.0000000000 0.2793626488 0.7206373512 0.2793626488  Biso 1.0 Ir
S9 1.0000000000 0.5000000000 0.3740803712 0.8146804186  Biso 1.0 S
S10 1.0000000000 0.5000000000 0.6259196288 0.8146804186  Biso 1.0 S
S11 1.0000000000 0.5000000000 0.3740803712 0.1853195814  Biso 1.0 S
S12 1.0000000000 0.5000000000 0.6259196288 0.1853195814  Biso 1.0 S
S13 1.0000000000 0.1853195814 0.5000000000 0.6259196288  Biso 1.0 S
S14 1.0000000000 0.1853195814 0.5000000000 0.3740803712  Biso 1.0 S
S15 1.0000000000 0.8146804186 0.5000000000 0.6259196288  Biso 1.0 S
S16 1.0000000000 0.8146804186 0.5000000000 0.3740803712  Biso 1.0 S
S17 1.0000000000 0.3740803712 0.1853195814 0.5000000000  Biso 1.0 S
S18 1.0000000000 0.6259196288 0.1853195814 0.5000000000  Biso 1.0 S
S19 1.0000000000 0.3740803712 0.8146804186 0.5000000000  Biso 1.0 S
S20 1.0000000000 0.6259196288 0.8146804186 0.5000000000  Biso 1.0 S
Sn21 1.0000000000 0.0000000000 0.8363331308 0.3269905896  Biso 1.0 Sn
Sn22 1.0000000000 0.0000000000 0.1636668692 0.3269905896  Biso 1.0 Sn
Sn23 1.0000000000 0.0000000000 0.8363331308 0.6730094104  Biso 1.0 Sn
Sn24 1.0000000000 0.0000000000 0.1636668692 0.6730094104  Biso 1.0 Sn
Sn25 1.0000000000 0.6730094104 0.0000000000 0.1636668692  Biso 1.0 Sn
Sn26 1.0000000000 0.6730094104 0.0000000000 0.8363331308  Biso 1.0 Sn
Sn27 1.0000000000 0.3269905896 0.0000000000 0.1636668692  Biso 1.0 Sn
Sn28 1.0000000000 0.3269905896 0.0000000000 0.8363331308  Biso 1.0 Sn
Sn29 1.0000000000 0.8363331308 0.6730094104 0.0000000000  Biso 1.0 Sn
Sn30 1.0000000000 0.1636668692 0.6730094104 0.0000000000  Biso 1.0 Sn
Sn31 1.0000000000 0.8363331308 0.3269905896 0.0000000000  Biso 1.0 Sn
Sn32 1.0000000000 0.1636668692 0.3269905896 0.0000000000  Biso 1.0 Sn
