# AFLOW.org Repositories
# Ir2Si2Th1   [TET,TET,tP10] (STD_PRIM doi
data_Ir2Si2Th1
_pd_phase_name Ir2Si2Th1
_cell_length_a  4.2143246640
_cell_length_b  4.2143246640
_cell_length_c  9.9777402284
_cell_angle_alpha  90.0000000000
_cell_angle_beta  90.0000000000
_cell_angle_gamma  90.0000000000
_symmetry_space_group_name_H-M  'P1'
_symmetry_Int_Tables_Number  1
loop_
_symmetry_equiv_pos_site_id
_symmetry_equiv_pos_as_xyz
  1  x,y,z
loop_
 _atom_site_label
 _atom_site_occupancy
 _atom_site_fract_x
 _atom_site_fract_y
 _atom_site_fract_z
 _atom_site_thermal_displace_type
 _atom_site_B_iso_or_equiv
 _atom_site_type_symbol
Ir1 1.0000000000 0.7500000000 0.2500000000 0.0000000000  Biso 1.0 Ir
Ir2 1.0000000000 0.2500000000 0.7500000000 0.0000000000  Biso 1.0 Ir
Ir3 1.0000000000 0.2500000000 0.2500000000 0.3778927094  Biso 1.0 Ir
Ir4 1.0000000000 0.7500000000 0.7500000000 0.6221072906  Biso 1.0 Ir
Si5 1.0000000000 0.7500000000 0.2500000000 0.5000000000  Biso 1.0 Si
Si6 1.0000000000 0.2500000000 0.7500000000 0.5000000000  Biso 1.0 Si
Si7 1.0000000000 0.2500000000 0.2500000000 0.1303712119  Biso 1.0 Si
Si8 1.0000000000 0.7500000000 0.7500000000 0.8696287881  Biso 1.0 Si
Th9 1.0000000000 0.2500000000 0.2500000000 0.7450346067  Biso 1.0 Th
Th10 1.0000000000 0.7500000000 0.7500000000 0.2549653933  Biso 1.0 Th
