# AFLOW.org Repositories
# Ir3Sn7   [BCC,BCC,cI40] (STD_PRIM doi:10
data_Ir3Sn7
_pd_phase_name Ir3Sn7
_cell_length_a  8.2971080948
_cell_length_b  8.2971080948
_cell_length_c  8.2971080948
_cell_angle_alpha  109.4712206345
_cell_angle_beta  109.4712206345
_cell_angle_gamma  109.4712206345
_symmetry_space_group_name_H-M  'P1'
_symmetry_Int_Tables_Number  1
loop_
_symmetry_equiv_pos_site_id
_symmetry_equiv_pos_as_xyz
  1  x,y,z
loop_
 _atom_site_label
 _atom_site_occupancy
 _atom_site_fract_x
 _atom_site_fract_y
 _atom_site_fract_z
 _atom_site_thermal_displace_type
 _atom_site_B_iso_or_equiv
 _atom_site_type_symbol
Ir1 1.0000000000 0.6568896378 0.6568896378 0.0000000000  Biso 1.0 Ir
Ir2 1.0000000000 0.3431103622 0.3431103622 0.0000000000  Biso 1.0 Ir
Ir3 1.0000000000 0.0000000000 0.6568896378 0.6568896378  Biso 1.0 Ir
Ir4 1.0000000000 0.0000000000 0.3431103622 0.3431103622  Biso 1.0 Ir
Ir5 1.0000000000 0.3431103622 0.0000000000 0.3431103622  Biso 1.0 Ir
Ir6 1.0000000000 0.6568896378 0.0000000000 0.6568896378  Biso 1.0 Ir
Sn7 1.0000000000 0.7500000000 0.5000000000 0.2500000000  Biso 1.0 Sn
Sn8 1.0000000000 0.2500000000 0.5000000000 0.7500000000  Biso 1.0 Sn
Sn9 1.0000000000 0.7500000000 0.2500000000 0.5000000000  Biso 1.0 Sn
Sn10 1.0000000000 0.2500000000 0.7500000000 0.5000000000  Biso 1.0 Sn
Sn11 1.0000000000 0.5000000000 0.7500000000 0.2500000000  Biso 1.0 Sn
Sn12 1.0000000000 0.5000000000 0.2500000000 0.7500000000  Biso 1.0 Sn
Sn13 1.0000000000 0.0000000000 0.6709600527 0.0000000000  Biso 1.0 Sn
Sn14 1.0000000000 0.3290399473 0.3290399473 0.3290399473  Biso 1.0 Sn
Sn15 1.0000000000 0.0000000000 0.0000000000 0.6709600527  Biso 1.0 Sn
Sn16 1.0000000000 0.6709600527 0.0000000000 0.0000000000  Biso 1.0 Sn
Sn17 1.0000000000 0.6709600527 0.6709600527 0.6709600527  Biso 1.0 Sn
Sn18 1.0000000000 0.0000000000 0.3290399473 0.0000000000  Biso 1.0 Sn
Sn19 1.0000000000 0.0000000000 0.0000000000 0.3290399473  Biso 1.0 Sn
Sn20 1.0000000000 0.3290399473 0.0000000000 0.0000000000  Biso 1.0 Sn
