# AFLOW.org Repositories
# Ir3W1   [HEX,HEX,hP8] (STD_PRIM doi:10.1
data_Ir3W1
_pd_phase_name Ir3W1
_cell_length_a  5.5140925809
_cell_length_b  5.5140925809
_cell_length_c  4.4059742495
_cell_angle_alpha  90.0000000000
_cell_angle_beta  90.0000000000
_cell_angle_gamma  120.0000000000
_symmetry_space_group_name_H-M  'P1'
_symmetry_Int_Tables_Number  1
loop_
_symmetry_equiv_pos_site_id
_symmetry_equiv_pos_as_xyz
  1  x,y,z
loop_
 _atom_site_label
 _atom_site_occupancy
 _atom_site_fract_x
 _atom_site_fract_y
 _atom_site_fract_z
 _atom_site_thermal_displace_type
 _atom_site_B_iso_or_equiv
 _atom_site_type_symbol
Ir1 1.0000000000 0.6680255246 0.8340163342 0.2500000000  Biso 1.0 Ir
Ir2 1.0000000000 0.1659908096 0.8340163342 0.2500000000  Biso 1.0 Ir
Ir3 1.0000000000 0.1659804935 0.3319609869 0.2500000000  Biso 1.0 Ir
Ir4 1.0000000000 0.3319744754 0.1659836658 0.7500000000  Biso 1.0 Ir
Ir5 1.0000000000 0.8340091904 0.1659836658 0.7500000000  Biso 1.0 Ir
Ir6 1.0000000000 0.8340195065 0.6680390131 0.7500000000  Biso 1.0 Ir
W7 1.0000000000 0.6666810281 0.3333620563 0.2500000000  Biso 1.0 W
W8 1.0000000000 0.3333189719 0.6666379437 0.7500000000  Biso 1.0 W
