# AFLOW.org Repositories
# K1N3   [BCT,BCT2,tI16] (STD_PRIM doi:10.
data_K1N3
_pd_phase_name K1N3
_cell_length_a  5.6775903646
_cell_length_b  5.6775903646
_cell_length_c  5.6775903646
_cell_angle_alpha  113.6613910159
_cell_angle_beta  113.6613910159
_cell_angle_gamma  101.3813749501
_symmetry_space_group_name_H-M  'P1'
_symmetry_Int_Tables_Number  1
loop_
_symmetry_equiv_pos_site_id
_symmetry_equiv_pos_as_xyz
  1  x,y,z
loop_
 _atom_site_label
 _atom_site_occupancy
 _atom_site_fract_x
 _atom_site_fract_y
 _atom_site_fract_z
 _atom_site_thermal_displace_type
 _atom_site_B_iso_or_equiv
 _atom_site_type_symbol
K1 1.0000000000 0.2499958465 0.2499958465 0.0000000000  Biso 1.0 K
K2 1.0000000000 0.7500041535 0.7500041535 0.0000000000  Biso 1.0 K
N3 1.0000000000 0.6351867291 0.1352444299 0.7704311590  Biso 1.0 N
N4 1.0000000000 0.3648132709 0.8647555701 0.2295688410  Biso 1.0 N
N5 1.0000000000 0.1352444299 0.3648132709 0.5000577008  Biso 1.0 N
N6 1.0000000000 0.8647555701 0.6351867291 0.4999422992  Biso 1.0 N
N7 1.0000000000 0.5000000000 0.0000000000 0.5000000000  Biso 1.0 N
N8 1.0000000000 0.0000000000 0.5000000000 0.5000000000  Biso 1.0 N
