# AFLOW.org Repositories
# K1Nb1O3   [ORCC,ORCC,oS10] (STD_PRIM doi
data_K1Nb1O3
_pd_phase_name K1Nb1O3
_cell_length_a  4.0778188111
_cell_length_b  4.0778188111
_cell_length_c  4.0181931233
_cell_angle_alpha  90.0000000000
_cell_angle_beta  90.0000000000
_cell_angle_gamma  90.1938796091
_symmetry_space_group_name_H-M  'P1'
_symmetry_Int_Tables_Number  1
loop_
_symmetry_equiv_pos_site_id
_symmetry_equiv_pos_as_xyz
  1  x,y,z
loop_
 _atom_site_label
 _atom_site_occupancy
 _atom_site_fract_x
 _atom_site_fract_y
 _atom_site_fract_z
 _atom_site_thermal_displace_type
 _atom_site_B_iso_or_equiv
 _atom_site_type_symbol
K1 1.0000000000 0.9854407114 0.0145592886 0.0000000000  Biso 1.0 K
Nb2 1.0000000000 0.4957834393 0.5042165607 0.5000000000  Biso 1.0 Nb
O3 1.0000000000 0.4658650723 0.5341349277 0.0000000000  Biso 1.0 O
O4 1.0000000000 0.4699810235 0.0356702465 0.5000000000  Biso 1.0 O
O5 1.0000000000 0.9643297535 0.5300189765 0.5000000000  Biso 1.0 O
