# AFLOW.org Repositories
# K1Nb1S2   [HEX,HEX,hP8] (STD_PRIM doi:10
data_K1Nb1S2
_pd_phase_name K1Nb1S2
_cell_length_a  3.4822529312
_cell_length_b  3.4822529312
_cell_length_c  15.6279182681
_cell_angle_alpha  90.0000000000
_cell_angle_beta  90.0000000000
_cell_angle_gamma  120.0000000000
_symmetry_space_group_name_H-M  'P1'
_symmetry_Int_Tables_Number  1
loop_
_symmetry_equiv_pos_site_id
_symmetry_equiv_pos_as_xyz
  1  x,y,z
loop_
 _atom_site_label
 _atom_site_occupancy
 _atom_site_fract_x
 _atom_site_fract_y
 _atom_site_fract_z
 _atom_site_thermal_displace_type
 _atom_site_B_iso_or_equiv
 _atom_site_type_symbol
K1 1.0000000000 0.0000000000 0.0000000000 0.0000000000  Biso 1.0 K
K2 1.0000000000 0.0000000000 0.0000000000 0.5000000000  Biso 1.0 K
Nb3 1.0000000000 0.0000000000 0.0000000000 0.2500000000  Biso 1.0 Nb
Nb4 1.0000000000 0.0000000000 0.0000000000 0.7500000000  Biso 1.0 Nb
S5 1.0000000000 0.6666871313 0.3333742626 0.1512066210  Biso 1.0 S
S6 1.0000000000 0.3333128687 0.6666257374 0.6512066210  Biso 1.0 S
S7 1.0000000000 0.3333128687 0.6666257374 0.8487933790  Biso 1.0 S
S8 1.0000000000 0.6666871313 0.3333742626 0.3487933790  Biso 1.0 S
