# AFLOW.org Repositories
# K1Sb1Zn1   [HEX,HEX,hP6] (STD_PRIM doi:1
data_K1Sb1Zn1
_pd_phase_name K1Sb1Zn1
_cell_length_a  4.5663770128
_cell_length_b  4.5663770128
_cell_length_c  10.6454680149
_cell_angle_alpha  90.0000000000
_cell_angle_beta  90.0000000000
_cell_angle_gamma  120.0000000000
_symmetry_space_group_name_H-M  'P1'
_symmetry_Int_Tables_Number  1
loop_
_symmetry_equiv_pos_site_id
_symmetry_equiv_pos_as_xyz
  1  x,y,z
loop_
 _atom_site_label
 _atom_site_occupancy
 _atom_site_fract_x
 _atom_site_fract_y
 _atom_site_fract_z
 _atom_site_thermal_displace_type
 _atom_site_B_iso_or_equiv
 _atom_site_type_symbol
K1 1.0000000000 0.0000000000 0.0000000000 0.0000000000  Biso 1.0 K
K2 1.0000000000 0.0000000000 0.0000000000 0.5000000000  Biso 1.0 K
Sb3 1.0000000000 0.6666698011 0.3333396022 0.2500000000  Biso 1.0 Sb
Sb4 1.0000000000 0.3333301989 0.6666603978 0.7500000000  Biso 1.0 Sb
Zn5 1.0000000000 0.6666581138 0.3333162277 0.7500000000  Biso 1.0 Zn
Zn6 1.0000000000 0.3333418862 0.6666837723 0.2500000000  Biso 1.0 Zn
