# AFLOW.org Repositories
# K1Sb1Sn1   [HEX,HEX,hP6] (STD_PRIM doi:1
data_K1Sb1Sn1
_pd_phase_name K1Sb1Sn1
_cell_length_a  4.4774661816
_cell_length_b  4.4774661816
_cell_length_c  13.2724419931
_cell_angle_alpha  90.0000000000
_cell_angle_beta  90.0000000000
_cell_angle_gamma  120.0000000000
_symmetry_space_group_name_H-M  'P1'
_symmetry_Int_Tables_Number  1
loop_
_symmetry_equiv_pos_site_id
_symmetry_equiv_pos_as_xyz
  1  x,y,z
loop_
 _atom_site_label
 _atom_site_occupancy
 _atom_site_fract_x
 _atom_site_fract_y
 _atom_site_fract_z
 _atom_site_thermal_displace_type
 _atom_site_B_iso_or_equiv
 _atom_site_type_symbol
K1 1.0000000000 0.3333849300 0.6666924650 0.7020537287  Biso 1.0 K
K2 1.0000000000 0.6666150700 0.3333075350 0.2020537287  Biso 1.0 K
Sb3 1.0000000000 0.3333600977 0.6666800489 0.3910897338  Biso 1.0 Sb
Sb4 1.0000000000 0.6666399023 0.3333199511 0.8910897338  Biso 1.0 Sb
Sn5 1.0000000000 0.0000000000 0.0000000000 0.0000000000  Biso 1.0 Sn
Sn6 1.0000000000 0.0000000000 0.0000000000 0.5009565375  Biso 1.0 Sn
