# AFLOW.org Repositories
# K2Se2   [HEX,HEX,hP12] (STD_PRIM doi:10.
data_K2Se2
_pd_phase_name K2Se2
_cell_length_a  9.0173397743
_cell_length_b  9.0173397743
_cell_length_c  6.0958880851
_cell_angle_alpha  90.0000000000
_cell_angle_beta  90.0000000000
_cell_angle_gamma  120.0000000000
_symmetry_space_group_name_H-M  'P1'
_symmetry_Int_Tables_Number  1
loop_
_symmetry_equiv_pos_site_id
_symmetry_equiv_pos_as_xyz
  1  x,y,z
loop_
 _atom_site_label
 _atom_site_occupancy
 _atom_site_fract_x
 _atom_site_fract_y
 _atom_site_fract_z
 _atom_site_thermal_displace_type
 _atom_site_B_iso_or_equiv
 _atom_site_type_symbol
K1 1.0000000000 0.3512067049 0.3512067049 0.0000000000  Biso 1.0 K
K2 1.0000000000 0.6487880204 0.0000000000 0.0000000000  Biso 1.0 K
K3 1.0000000000 0.0000000000 0.6487832997 0.0000000000  Biso 1.0 K
K4 1.0000000000 0.6849337994 0.6849337994 0.5000000000  Biso 1.0 K
K5 1.0000000000 0.3150748648 0.0000000000 0.5000000000  Biso 1.0 K
K6 1.0000000000 0.0000000000 0.3150835474 0.5000000000  Biso 1.0 K
Se7 1.0000000000 0.0000000000 0.0000000000 0.1990399187  Biso 1.0 Se
Se8 1.0000000000 0.0000000000 0.0000000000 0.8009600813  Biso 1.0 Se
Se9 1.0000000000 0.3333398326 0.6666689522 0.2995475951  Biso 1.0 Se
Se10 1.0000000000 0.3333398326 0.6666689522 0.7004524049  Biso 1.0 Se
Se11 1.0000000000 0.6666601674 0.3333291197 0.7004524049  Biso 1.0 Se
Se12 1.0000000000 0.6666601674 0.3333291197 0.2995475951  Biso 1.0 Se
