# AFLOW.org Repositories
# K3S3Sb1   [CUB,CUB,cP28] (STD_PRIM doi:1
data_K3S3Sb1
_pd_phase_name K3S3Sb1
_cell_length_a  9.6191492576
_cell_length_b  9.6191492576
_cell_length_c  9.6191492576
_cell_angle_alpha  90.0000000000
_cell_angle_beta  90.0000000000
_cell_angle_gamma  90.0000000000
_symmetry_space_group_name_H-M  'P1'
_symmetry_Int_Tables_Number  1
loop_
_symmetry_equiv_pos_site_id
_symmetry_equiv_pos_as_xyz
  1  x,y,z
loop_
 _atom_site_label
 _atom_site_occupancy
 _atom_site_fract_x
 _atom_site_fract_y
 _atom_site_fract_z
 _atom_site_thermal_displace_type
 _atom_site_B_iso_or_equiv
 _atom_site_type_symbol
K1 1.0000000000 0.5589255998 0.5589255998 0.4410744002  Biso 1.0 K
K2 1.0000000000 0.9410744002 0.4410744002 0.9410744002  Biso 1.0 K
K3 1.0000000000 0.4410744002 0.0589255998 0.0589255998  Biso 1.0 K
K4 1.0000000000 0.0589255998 0.9410744002 0.5589255998  Biso 1.0 K
K5 1.0000000000 0.0664023536 0.0664023536 0.9335976464  Biso 1.0 K
K6 1.0000000000 0.4335976464 0.9335976464 0.4335976464  Biso 1.0 K
K7 1.0000000000 0.9335976464 0.5664023536 0.5664023536  Biso 1.0 K
K8 1.0000000000 0.5664023536 0.4335976464 0.0664023536  Biso 1.0 K
K9 1.0000000000 0.3254363695 0.3254363695 0.6745636305  Biso 1.0 K
K10 1.0000000000 0.1745636305 0.6745636305 0.1745636305  Biso 1.0 K
K11 1.0000000000 0.6745636305 0.8254363695 0.8254363695  Biso 1.0 K
K12 1.0000000000 0.8254363695 0.1745636305 0.3254363695  Biso 1.0 K
S13 1.0000000000 0.8490201174 0.5336066784 0.2473380336  Biso 1.0 S
S14 1.0000000000 0.6509798826 0.4663933216 0.7473380336  Biso 1.0 S
S15 1.0000000000 0.1509798826 0.0336066784 0.2526619664  Biso 1.0 S
S16 1.0000000000 0.3490201174 0.9663933216 0.7526619664  Biso 1.0 S
S17 1.0000000000 0.7526619664 0.8490201174 0.4663933216  Biso 1.0 S
S18 1.0000000000 0.2526619664 0.6509798826 0.5336066784  Biso 1.0 S
S19 1.0000000000 0.7473380336 0.1509798826 0.9663933216  Biso 1.0 S
S20 1.0000000000 0.2473380336 0.3490201174 0.0336066784  Biso 1.0 S
S21 1.0000000000 0.5336066784 0.7526619664 0.1509798826  Biso 1.0 S
S22 1.0000000000 0.4663933216 0.2526619664 0.3490201174  Biso 1.0 S
S23 1.0000000000 0.0336066784 0.7473380336 0.8490201174  Biso 1.0 S
S24 1.0000000000 0.9663933216 0.2473380336 0.6509798826  Biso 1.0 S
Sb25 1.0000000000 0.7774664128 0.7774664128 0.2225335872  Biso 1.0 Sb
Sb26 1.0000000000 0.7225335872 0.2225335872 0.7225335872  Biso 1.0 Sb
Sb27 1.0000000000 0.2225335872 0.2774664128 0.2774664128  Biso 1.0 Sb
Sb28 1.0000000000 0.2774664128 0.7225335872 0.7774664128  Biso 1.0 Sb
