# AFLOW.org Repositories
# K3Sb1Se3   [CUB,CUB,cP28] (STD_PRIM doi:
data_K3Sb1Se3
_pd_phase_name K3Sb1Se3
_cell_length_a  9.9666941219
_cell_length_b  9.9666941219
_cell_length_c  9.9666941219
_cell_angle_alpha  90.0000000000
_cell_angle_beta  90.0000000000
_cell_angle_gamma  90.0000000000
_symmetry_space_group_name_H-M  'P1'
_symmetry_Int_Tables_Number  1
loop_
_symmetry_equiv_pos_site_id
_symmetry_equiv_pos_as_xyz
  1  x,y,z
loop_
 _atom_site_label
 _atom_site_occupancy
 _atom_site_fract_x
 _atom_site_fract_y
 _atom_site_fract_z
 _atom_site_thermal_displace_type
 _atom_site_B_iso_or_equiv
 _atom_site_type_symbol
K1 1.0000000000 0.6822040846 0.6822040846 0.3177959154  Biso 1.0 K
K2 1.0000000000 0.8177959154 0.3177959154 0.8177959154  Biso 1.0 K
K3 1.0000000000 0.3177959154 0.1822040846 0.1822040846  Biso 1.0 K
K4 1.0000000000 0.1822040846 0.8177959154 0.6822040846  Biso 1.0 K
K5 1.0000000000 0.4226965955 0.4226965955 0.5773034045  Biso 1.0 K
K6 1.0000000000 0.0773034045 0.5773034045 0.0773034045  Biso 1.0 K
K7 1.0000000000 0.5773034045 0.9226965955 0.9226965955  Biso 1.0 K
K8 1.0000000000 0.9226965955 0.0773034045 0.4226965955  Biso 1.0 K
K9 1.0000000000 0.1876146624 0.1876146624 0.8123853376  Biso 1.0 K
K10 1.0000000000 0.3123853376 0.8123853376 0.3123853376  Biso 1.0 K
K11 1.0000000000 0.8123853376 0.6876146624 0.6876146624  Biso 1.0 K
K12 1.0000000000 0.6876146624 0.3123853376 0.1876146624  Biso 1.0 K
Sb13 1.0000000000 0.9713377752 0.9713377752 0.0286622248  Biso 1.0 Sb
Sb14 1.0000000000 0.5286622248 0.0286622248 0.5286622248  Biso 1.0 Sb
Sb15 1.0000000000 0.0286622248 0.4713377752 0.4713377752  Biso 1.0 Sb
Sb16 1.0000000000 0.4713377752 0.5286622248 0.9713377752  Biso 1.0 Sb
Se17 1.0000000000 0.7799266311 0.3962226106 0.4971053041  Biso 1.0 Se
Se18 1.0000000000 0.7200733689 0.6037773894 0.9971053041  Biso 1.0 Se
Se19 1.0000000000 0.2200733689 0.8962226106 0.0028946959  Biso 1.0 Se
Se20 1.0000000000 0.2799266311 0.1037773894 0.5028946959  Biso 1.0 Se
Se21 1.0000000000 0.5028946959 0.7799266311 0.6037773894  Biso 1.0 Se
Se22 1.0000000000 0.0028946959 0.7200733689 0.3962226106  Biso 1.0 Se
Se23 1.0000000000 0.9971053041 0.2200733689 0.1037773894  Biso 1.0 Se
Se24 1.0000000000 0.4971053041 0.2799266311 0.8962226106  Biso 1.0 Se
Se25 1.0000000000 0.3962226106 0.5028946959 0.2200733689  Biso 1.0 Se
Se26 1.0000000000 0.6037773894 0.0028946959 0.2799266311  Biso 1.0 Se
Se27 1.0000000000 0.8962226106 0.9971053041 0.7799266311  Biso 1.0 Se
Se28 1.0000000000 0.1037773894 0.4971053041 0.7200733689  Biso 1.0 Se
