# AFLOW.org Repositories
# K3Sb1Te3   [CUB,CUB,cP28] (STD_PRIM doi:
data_K3Sb1Te3
_pd_phase_name K3Sb1Te3
_cell_length_a  10.5613355752
_cell_length_b  10.5613355752
_cell_length_c  10.5613355752
_cell_angle_alpha  90.0000000000
_cell_angle_beta  90.0000000000
_cell_angle_gamma  90.0000000000
_symmetry_space_group_name_H-M  'P1'
_symmetry_Int_Tables_Number  1
loop_
_symmetry_equiv_pos_site_id
_symmetry_equiv_pos_as_xyz
  1  x,y,z
loop_
 _atom_site_label
 _atom_site_occupancy
 _atom_site_fract_x
 _atom_site_fract_y
 _atom_site_fract_z
 _atom_site_thermal_displace_type
 _atom_site_B_iso_or_equiv
 _atom_site_type_symbol
K1 1.0000000000 0.4216438388 0.4216438388 0.5783561612  Biso 1.0 K
K2 1.0000000000 0.0783561612 0.5783561612 0.0783561612  Biso 1.0 K
K3 1.0000000000 0.5783561612 0.9216438388 0.9216438388  Biso 1.0 K
K4 1.0000000000 0.9216438388 0.0783561612 0.4216438388  Biso 1.0 K
K5 1.0000000000 0.6768105064 0.6768105064 0.3231894936  Biso 1.0 K
K6 1.0000000000 0.8231894936 0.3231894936 0.8231894936  Biso 1.0 K
K7 1.0000000000 0.3231894936 0.1768105064 0.1768105064  Biso 1.0 K
K8 1.0000000000 0.1768105064 0.8231894936 0.6768105064  Biso 1.0 K
K9 1.0000000000 0.1831561573 0.1831561573 0.8168438427  Biso 1.0 K
K10 1.0000000000 0.3168438427 0.8168438427 0.3168438427  Biso 1.0 K
K11 1.0000000000 0.8168438427 0.6831561573 0.6831561573  Biso 1.0 K
K12 1.0000000000 0.6831561573 0.3168438427 0.1831561573  Biso 1.0 K
Sb13 1.0000000000 0.9694816537 0.9694816537 0.0305183463  Biso 1.0 Sb
Sb14 1.0000000000 0.5305183463 0.0305183463 0.5305183463  Biso 1.0 Sb
Sb15 1.0000000000 0.0305183463 0.4694816537 0.4694816537  Biso 1.0 Sb
Sb16 1.0000000000 0.4694816537 0.5305183463 0.9694816537  Biso 1.0 Sb
Te17 1.0000000000 0.7768259486 0.3885879643 0.4983324643  Biso 1.0 Te
Te18 1.0000000000 0.7231740514 0.6114120357 0.9983324643  Biso 1.0 Te
Te19 1.0000000000 0.2231740514 0.8885879643 0.0016675357  Biso 1.0 Te
Te20 1.0000000000 0.2768259486 0.1114120357 0.5016675357  Biso 1.0 Te
Te21 1.0000000000 0.5016675357 0.7768259486 0.6114120357  Biso 1.0 Te
Te22 1.0000000000 0.0016675357 0.7231740514 0.3885879643  Biso 1.0 Te
Te23 1.0000000000 0.9983324643 0.2231740514 0.1114120357  Biso 1.0 Te
Te24 1.0000000000 0.4983324643 0.2768259486 0.8885879643  Biso 1.0 Te
Te25 1.0000000000 0.3885879643 0.5016675357 0.2231740514  Biso 1.0 Te
Te26 1.0000000000 0.6114120357 0.0016675357 0.2768259486  Biso 1.0 Te
Te27 1.0000000000 0.8885879643 0.9983324643 0.7768259486  Biso 1.0 Te
Te28 1.0000000000 0.1114120357 0.4983324643 0.7231740514  Biso 1.0 Te
