# AFLOW.org Repositories
# K5Sb4   [MCLC,MCLC1,mS18] (STD_PRIM doi:
data_K5Sb4
_pd_phase_name K5Sb4
_cell_length_a  6.8516361322
_cell_length_b  6.8516361322
_cell_length_c  11.4102854204
_cell_angle_alpha  70.1191922385
_cell_angle_beta  70.1191922385
_cell_angle_gamma  47.7106277713
_symmetry_space_group_name_H-M  'P1'
_symmetry_Int_Tables_Number  1
loop_
_symmetry_equiv_pos_site_id
_symmetry_equiv_pos_as_xyz
  1  x,y,z
loop_
 _atom_site_label
 _atom_site_occupancy
 _atom_site_fract_x
 _atom_site_fract_y
 _atom_site_fract_z
 _atom_site_thermal_displace_type
 _atom_site_B_iso_or_equiv
 _atom_site_type_symbol
K1 1.0000000000 0.8990651305 0.8990651305 0.3918556904  Biso 1.0 K
K2 1.0000000000 0.1009348695 0.1009348695 0.6081443096  Biso 1.0 K
K3 1.0000000000 0.2459495955 0.2459495955 0.1652915920  Biso 1.0 K
K4 1.0000000000 0.7540504045 0.7540504045 0.8347084080  Biso 1.0 K
K5 1.0000000000 0.0000000000 0.0000000000 0.0000000000  Biso 1.0 K
Sb6 1.0000000000 0.5442624222 0.5442624222 0.1753211455  Biso 1.0 Sb
Sb7 1.0000000000 0.4557375778 0.4557375778 0.8246788545  Biso 1.0 Sb
Sb8 1.0000000000 0.6056161974 0.6056161974 0.3907432384  Biso 1.0 Sb
Sb9 1.0000000000 0.3943838026 0.3943838026 0.6092567616  Biso 1.0 Sb
