# AFLOW.org Repositories
# K5Te3   [BCT,BCT1,tI32] (STD_PRIM doi:10
data_K5Te3
_pd_phase_name K5Te3
_cell_length_a  10.3256481018
_cell_length_b  10.3256481018
_cell_length_c  10.3256481018
_cell_angle_alpha  95.6838819093
_cell_angle_beta  95.6838819093
_cell_angle_gamma  143.3138759310
_symmetry_space_group_name_H-M  'P1'
_symmetry_Int_Tables_Number  1
loop_
_symmetry_equiv_pos_site_id
_symmetry_equiv_pos_as_xyz
  1  x,y,z
loop_
 _atom_site_label
 _atom_site_occupancy
 _atom_site_fract_x
 _atom_site_fract_y
 _atom_site_fract_z
 _atom_site_thermal_displace_type
 _atom_site_B_iso_or_equiv
 _atom_site_type_symbol
K1 1.0000000000 0.9095719566 0.7755528798 0.6851248363  Biso 1.0 K
K2 1.0000000000 0.0904280434 0.2244471202 0.3148751637  Biso 1.0 K
K3 1.0000000000 0.7755528798 0.0904280434 0.8659809232  Biso 1.0 K
K4 1.0000000000 0.2244471202 0.9095719566 0.1340190768  Biso 1.0 K
K5 1.0000000000 0.2808007384 0.4116645677 0.6924653060  Biso 1.0 K
K6 1.0000000000 0.7191992616 0.5883354323 0.3075346940  Biso 1.0 K
K7 1.0000000000 0.4116645677 0.7191992616 0.1308638293  Biso 1.0 K
K8 1.0000000000 0.5883354323 0.2808007384 0.8691361707  Biso 1.0 K
K9 1.0000000000 0.7500000000 0.2500000000 0.5000000000  Biso 1.0 K
K10 1.0000000000 0.2500000000 0.7500000000 0.5000000000  Biso 1.0 K
Te11 1.0000000000 0.2183036651 0.2183036651 0.0000000000  Biso 1.0 Te
Te12 1.0000000000 0.7816963349 0.7816963349 0.0000000000  Biso 1.0 Te
Te13 1.0000000000 0.6549993232 0.8440922691 0.4990915923  Biso 1.0 Te
Te14 1.0000000000 0.3450006768 0.1559077309 0.5009084077  Biso 1.0 Te
Te15 1.0000000000 0.8440922691 0.3450006768 0.1890929458  Biso 1.0 Te
Te16 1.0000000000 0.1559077309 0.6549993232 0.8109070542  Biso 1.0 Te
