# AFLOW.org Repositories
# K8Sb4Sn1   [FCC,FCC,cF104] (STD_PRIM doi
data_K8Sb4Sn1
_pd_phase_name K8Sb4Sn1
_cell_length_a  11.6622438255
_cell_length_b  11.6622438255
_cell_length_c  11.6622438255
_cell_angle_alpha  60.0000000000
_cell_angle_beta  60.0000000000
_cell_angle_gamma  60.0000000000
_symmetry_space_group_name_H-M  'P1'
_symmetry_Int_Tables_Number  1
loop_
_symmetry_equiv_pos_site_id
_symmetry_equiv_pos_as_xyz
  1  x,y,z
loop_
 _atom_site_label
 _atom_site_occupancy
 _atom_site_fract_x
 _atom_site_fract_y
 _atom_site_fract_z
 _atom_site_thermal_displace_type
 _atom_site_B_iso_or_equiv
 _atom_site_type_symbol
K1 1.0000000000 0.6250000000 0.1250000000 0.1250000000  Biso 1.0 K
K2 1.0000000000 0.1250000000 0.6250000000 0.1250000000  Biso 1.0 K
K3 1.0000000000 0.1250000000 0.1250000000 0.6250000000  Biso 1.0 K
K4 1.0000000000 0.1250000000 0.1250000000 0.1250000000  Biso 1.0 K
K5 1.0000000000 0.7268837967 0.2731162033 0.2731162033  Biso 1.0 K
K6 1.0000000000 0.2731162033 0.7268837967 0.7268837967  Biso 1.0 K
K7 1.0000000000 0.7268837967 0.2731162033 0.7268837967  Biso 1.0 K
K8 1.0000000000 0.2731162033 0.7268837967 0.2731162033  Biso 1.0 K
K9 1.0000000000 0.7268837967 0.7268837967 0.2731162033  Biso 1.0 K
K10 1.0000000000 0.2731162033 0.2731162033 0.7268837967  Biso 1.0 K
K11 1.0000000000 0.9768837967 0.5231162033 0.9768837967  Biso 1.0 K
K12 1.0000000000 0.5231162033 0.9768837967 0.5231162033  Biso 1.0 K
K13 1.0000000000 0.9768837967 0.5231162033 0.5231162033  Biso 1.0 K
K14 1.0000000000 0.5231162033 0.9768837967 0.9768837967  Biso 1.0 K
K15 1.0000000000 0.5231162033 0.5231162033 0.9768837967  Biso 1.0 K
K16 1.0000000000 0.9768837967 0.9768837967 0.5231162033  Biso 1.0 K
Sb17 1.0000000000 0.9385994689 0.3538001770 0.3538001770  Biso 1.0 Sb
Sb18 1.0000000000 0.3538001770 0.9385994689 0.3538001770  Biso 1.0 Sb
Sb19 1.0000000000 0.3538001770 0.3538001770 0.9385994689  Biso 1.0 Sb
Sb20 1.0000000000 0.3538001770 0.3538001770 0.3538001770  Biso 1.0 Sb
Sb21 1.0000000000 0.8961998230 0.3114005311 0.8961998230  Biso 1.0 Sb
Sb22 1.0000000000 0.3114005311 0.8961998230 0.8961998230  Biso 1.0 Sb
Sb23 1.0000000000 0.8961998230 0.8961998230 0.3114005311  Biso 1.0 Sb
Sb24 1.0000000000 0.8961998230 0.8961998230 0.8961998230  Biso 1.0 Sb
Sn25 1.0000000000 0.0000000000 0.0000000000 0.0000000000  Biso 1.0 Sn
Sn26 1.0000000000 0.2500000000 0.2500000000 0.2500000000  Biso 1.0 Sn
