# AFLOW.org Repositories
# K8Sn46   [CUB,CUB,cP54] (STD_PRIM doi:10
data_K8Sn46
_pd_phase_name K8Sn46
_cell_length_a  12.7883686559
_cell_length_b  12.7883686559
_cell_length_c  12.7883686559
_cell_angle_alpha  90.0000000000
_cell_angle_beta  90.0000000000
_cell_angle_gamma  90.0000000000
_symmetry_space_group_name_H-M  'P1'
_symmetry_Int_Tables_Number  1
loop_
_symmetry_equiv_pos_site_id
_symmetry_equiv_pos_as_xyz
  1  x,y,z
loop_
 _atom_site_label
 _atom_site_occupancy
 _atom_site_fract_x
 _atom_site_fract_y
 _atom_site_fract_z
 _atom_site_thermal_displace_type
 _atom_site_B_iso_or_equiv
 _atom_site_type_symbol
K1 1.0000000000 0.0000000000 0.0000000000 0.0000000000  Biso 1.0 K
K2 1.0000000000 0.5000000000 0.5000000000 0.5000000000  Biso 1.0 K
K3 1.0000000000 0.7500000000 0.5000000000 0.0000000000  Biso 1.0 K
K4 1.0000000000 0.2500000000 0.5000000000 0.0000000000  Biso 1.0 K
K5 1.0000000000 0.0000000000 0.7500000000 0.5000000000  Biso 1.0 K
K6 1.0000000000 0.0000000000 0.2500000000 0.5000000000  Biso 1.0 K
K7 1.0000000000 0.5000000000 0.0000000000 0.2500000000  Biso 1.0 K
K8 1.0000000000 0.5000000000 0.0000000000 0.7500000000  Biso 1.0 K
Sn9 1.0000000000 0.7500000000 0.0000000000 0.5000000000  Biso 1.0 Sn
Sn10 1.0000000000 0.2500000000 0.0000000000 0.5000000000  Biso 1.0 Sn
Sn11 1.0000000000 0.5000000000 0.7500000000 0.0000000000  Biso 1.0 Sn
Sn12 1.0000000000 0.5000000000 0.2500000000 0.0000000000  Biso 1.0 Sn
Sn13 1.0000000000 0.0000000000 0.5000000000 0.2500000000  Biso 1.0 Sn
Sn14 1.0000000000 0.0000000000 0.5000000000 0.7500000000  Biso 1.0 Sn
Sn15 1.0000000000 0.8162804449 0.8162804449 0.1837195551  Biso 1.0 Sn
Sn16 1.0000000000 0.1837195551 0.1837195551 0.1837195551  Biso 1.0 Sn
Sn17 1.0000000000 0.1837195551 0.8162804449 0.8162804449  Biso 1.0 Sn
Sn18 1.0000000000 0.8162804449 0.1837195551 0.8162804449  Biso 1.0 Sn
Sn19 1.0000000000 0.3162804449 0.3162804449 0.3162804449  Biso 1.0 Sn
Sn20 1.0000000000 0.6837195551 0.6837195551 0.3162804449  Biso 1.0 Sn
Sn21 1.0000000000 0.3162804449 0.6837195551 0.6837195551  Biso 1.0 Sn
Sn22 1.0000000000 0.6837195551 0.3162804449 0.6837195551  Biso 1.0 Sn
Sn23 1.0000000000 0.1837195551 0.1837195551 0.8162804449  Biso 1.0 Sn
Sn24 1.0000000000 0.8162804449 0.8162804449 0.8162804449  Biso 1.0 Sn
Sn25 1.0000000000 0.8162804449 0.1837195551 0.1837195551  Biso 1.0 Sn
Sn26 1.0000000000 0.1837195551 0.8162804449 0.1837195551  Biso 1.0 Sn
Sn27 1.0000000000 0.6837195551 0.6837195551 0.6837195551  Biso 1.0 Sn
Sn28 1.0000000000 0.3162804449 0.3162804449 0.6837195551  Biso 1.0 Sn
Sn29 1.0000000000 0.6837195551 0.3162804449 0.3162804449  Biso 1.0 Sn
Sn30 1.0000000000 0.3162804449 0.6837195551 0.3162804449  Biso 1.0 Sn
Sn31 1.0000000000 0.0000000000 0.6920115490 0.1173365207  Biso 1.0 Sn
Sn32 1.0000000000 0.0000000000 0.3079884510 0.1173365207  Biso 1.0 Sn
Sn33 1.0000000000 0.0000000000 0.6920115490 0.8826634793  Biso 1.0 Sn
Sn34 1.0000000000 0.0000000000 0.3079884510 0.8826634793  Biso 1.0 Sn
Sn35 1.0000000000 0.8826634793 0.0000000000 0.3079884510  Biso 1.0 Sn
Sn36 1.0000000000 0.8826634793 0.0000000000 0.6920115490  Biso 1.0 Sn
Sn37 1.0000000000 0.1173365207 0.0000000000 0.3079884510  Biso 1.0 Sn
Sn38 1.0000000000 0.1173365207 0.0000000000 0.6920115490  Biso 1.0 Sn
Sn39 1.0000000000 0.6920115490 0.8826634793 0.0000000000  Biso 1.0 Sn
Sn40 1.0000000000 0.3079884510 0.8826634793 0.0000000000  Biso 1.0 Sn
Sn41 1.0000000000 0.6920115490 0.1173365207 0.0000000000  Biso 1.0 Sn
Sn42 1.0000000000 0.3079884510 0.1173365207 0.0000000000  Biso 1.0 Sn
Sn43 1.0000000000 0.1920115490 0.5000000000 0.3826634793  Biso 1.0 Sn
Sn44 1.0000000000 0.8079884510 0.5000000000 0.3826634793  Biso 1.0 Sn
Sn45 1.0000000000 0.1920115490 0.5000000000 0.6173365207  Biso 1.0 Sn
Sn46 1.0000000000 0.8079884510 0.5000000000 0.6173365207  Biso 1.0 Sn
Sn47 1.0000000000 0.5000000000 0.3826634793 0.1920115490  Biso 1.0 Sn
Sn48 1.0000000000 0.5000000000 0.3826634793 0.8079884510  Biso 1.0 Sn
Sn49 1.0000000000 0.5000000000 0.6173365207 0.1920115490  Biso 1.0 Sn
Sn50 1.0000000000 0.5000000000 0.6173365207 0.8079884510  Biso 1.0 Sn
Sn51 1.0000000000 0.3826634793 0.1920115490 0.5000000000  Biso 1.0 Sn
Sn52 1.0000000000 0.3826634793 0.8079884510 0.5000000000  Biso 1.0 Sn
Sn53 1.0000000000 0.6173365207 0.1920115490 0.5000000000  Biso 1.0 Sn
Sn54 1.0000000000 0.6173365207 0.8079884510 0.5000000000  Biso 1.0 Sn
