# AFLOW.org Repositories
# La1O3Y1   [ORC,ORC,oP20] (STD_PRIM doi:1
data_La1O3Y1
_pd_phase_name La1O3Y1
_cell_length_a  5.9638700045
_cell_length_b  6.1620440382
_cell_length_c  8.6197833257
_cell_angle_alpha  90.0000000000
_cell_angle_beta  90.0000000000
_cell_angle_gamma  90.0000000000
_symmetry_space_group_name_H-M  'P1'
_symmetry_Int_Tables_Number  1
loop_
_symmetry_equiv_pos_site_id
_symmetry_equiv_pos_as_xyz
  1  x,y,z
loop_
 _atom_site_label
 _atom_site_occupancy
 _atom_site_fract_x
 _atom_site_fract_y
 _atom_site_fract_z
 _atom_site_thermal_displace_type
 _atom_site_B_iso_or_equiv
 _atom_site_type_symbol
La1 1.0000000000 0.5122619317 0.0474158099 0.4802285761  Biso 1.0 La
La2 1.0000000000 0.4877380683 0.9525841901 0.9802285761  Biso 1.0 La
La3 1.0000000000 0.9877380683 0.5474158099 0.4802285761  Biso 1.0 La
La4 1.0000000000 0.0122619317 0.4525841901 0.9802285761  Biso 1.0 La
O5 1.0000000000 0.8204046512 0.3266151828 0.2791238705  Biso 1.0 O
O6 1.0000000000 0.1795953488 0.6733848172 0.7791238705  Biso 1.0 O
O7 1.0000000000 0.6795953488 0.8266151828 0.2791238705  Biso 1.0 O
O8 1.0000000000 0.3204046512 0.1733848172 0.7791238705  Biso 1.0 O
O9 1.0000000000 0.8003962931 0.2904317103 0.6482795283  Biso 1.0 O
O10 1.0000000000 0.1996037069 0.7095682897 0.1482795283  Biso 1.0 O
O11 1.0000000000 0.6996037069 0.7904317103 0.6482795283  Biso 1.0 O
O12 1.0000000000 0.3003962931 0.2095682897 0.1482795283  Biso 1.0 O
O13 1.0000000000 0.8752659602 0.0605327907 0.9714379635  Biso 1.0 O
O14 1.0000000000 0.1247340398 0.9394672093 0.4714379635  Biso 1.0 O
O15 1.0000000000 0.6247340398 0.5605327907 0.9714379635  Biso 1.0 O
O16 1.0000000000 0.3752659602 0.4394672093 0.4714379635  Biso 1.0 O
Y17 1.0000000000 0.0000000000 0.0063298604 0.2242300617  Biso 1.0 Y
Y18 1.0000000000 0.0000000000 0.9936701396 0.7242300617  Biso 1.0 Y
Y19 1.0000000000 0.5001585402 0.5063298604 0.2242300617  Biso 1.0 Y
Y20 1.0000000000 0.4998414598 0.4936701396 0.7242300617  Biso 1.0 Y
