# AFLOW.org Repositories
# La1O4P1   [HEX,HEX,hP18] (STD_PRIM doi:1
data_La1O4P1
_pd_phase_name La1O4P1
_cell_length_a  7.3221294813
_cell_length_b  7.3221294813
_cell_length_c  6.5253894722
_cell_angle_alpha  90.0000000000
_cell_angle_beta  90.0000000000
_cell_angle_gamma  120.0000000000
_symmetry_space_group_name_H-M  'P1'
_symmetry_Int_Tables_Number  1
loop_
_symmetry_equiv_pos_site_id
_symmetry_equiv_pos_as_xyz
  1  x,y,z
loop_
 _atom_site_label
 _atom_site_occupancy
 _atom_site_fract_x
 _atom_site_fract_y
 _atom_site_fract_z
 _atom_site_thermal_displace_type
 _atom_site_B_iso_or_equiv
 _atom_site_type_symbol
La1 1.0000000000 0.5000000000 0.0000000000 0.0000000000  Biso 1.0 La
La2 1.0000000000 0.0000000000 0.5000000000 0.6666666667  Biso 1.0 La
La3 1.0000000000 0.5000000000 0.5000000000 0.3333333333  Biso 1.0 La
O4 1.0000000000 0.4472111104 0.1351307357 0.3545796979  Biso 1.0 O
O5 1.0000000000 0.8648692643 0.3120803746 0.0212463645  Biso 1.0 O
O6 1.0000000000 0.6879196254 0.5527888896 0.6879130312  Biso 1.0 O
O7 1.0000000000 0.5527888896 0.8648692643 0.3545796979  Biso 1.0 O
O8 1.0000000000 0.1351307357 0.6879196254 0.0212463645  Biso 1.0 O
O9 1.0000000000 0.3120803746 0.4472111104 0.6879130312  Biso 1.0 O
O10 1.0000000000 0.1351307357 0.4472111104 0.3120869688  Biso 1.0 O
O11 1.0000000000 0.3120803746 0.8648692643 0.6454203021  Biso 1.0 O
O12 1.0000000000 0.5527888896 0.6879196254 0.9787536355  Biso 1.0 O
O13 1.0000000000 0.8648692643 0.5527888896 0.3120869688  Biso 1.0 O
O14 1.0000000000 0.6879196254 0.1351307357 0.6454203021  Biso 1.0 O
O15 1.0000000000 0.4472111104 0.3120803746 0.9787536355  Biso 1.0 O
P16 1.0000000000 0.5000000000 0.0000000000 0.5000000000  Biso 1.0 P
P17 1.0000000000 0.0000000000 0.5000000000 0.1666666667  Biso 1.0 P
P18 1.0000000000 0.5000000000 0.5000000000 0.8333333333  Biso 1.0 P
