# AFLOW.org Repositories
# La1P2Rh2   [TET,TET,tP10] (STD_PRIM doi:
data_La1P2Rh2
_pd_phase_name La1P2Rh2
_cell_length_a  4.2461547734
_cell_length_b  4.2461547734
_cell_length_c  9.5659009149
_cell_angle_alpha  90.0000000000
_cell_angle_beta  90.0000000000
_cell_angle_gamma  90.0000000000
_symmetry_space_group_name_H-M  'P1'
_symmetry_Int_Tables_Number  1
loop_
_symmetry_equiv_pos_site_id
_symmetry_equiv_pos_as_xyz
  1  x,y,z
loop_
 _atom_site_label
 _atom_site_occupancy
 _atom_site_fract_x
 _atom_site_fract_y
 _atom_site_fract_z
 _atom_site_thermal_displace_type
 _atom_site_B_iso_or_equiv
 _atom_site_type_symbol
La1 1.0000000000 0.2500000000 0.2500000000 0.7424835543  Biso 1.0 La
La2 1.0000000000 0.7500000000 0.7500000000 0.2575164457  Biso 1.0 La
P3 1.0000000000 0.7500000000 0.2500000000 0.5000000000  Biso 1.0 P
P4 1.0000000000 0.2500000000 0.7500000000 0.5000000000  Biso 1.0 P
P5 1.0000000000 0.2500000000 0.2500000000 0.1323553382  Biso 1.0 P
P6 1.0000000000 0.7500000000 0.7500000000 0.8676446618  Biso 1.0 P
Rh7 1.0000000000 0.7500000000 0.2500000000 0.0000000000  Biso 1.0 Rh
Rh8 1.0000000000 0.2500000000 0.7500000000 0.0000000000  Biso 1.0 Rh
Rh9 1.0000000000 0.2500000000 0.2500000000 0.3918010594  Biso 1.0 Rh
Rh10 1.0000000000 0.7500000000 0.7500000000 0.6081989406  Biso 1.0 Rh
