# AFLOW.org Repositories
# La1Rh1Si2   [ORCC,ORCC,oS16] (STD_PRIM d
data_La1Rh1Si2
_pd_phase_name La1Rh1Si2
_cell_length_a  8.7191357639
_cell_length_b  8.7191357639
_cell_length_c  4.2281986239
_cell_angle_alpha  90.0000000000
_cell_angle_beta  90.0000000000
_cell_angle_gamma  151.0287859989
_symmetry_space_group_name_H-M  'P1'
_symmetry_Int_Tables_Number  1
loop_
_symmetry_equiv_pos_site_id
_symmetry_equiv_pos_as_xyz
  1  x,y,z
loop_
 _atom_site_label
 _atom_site_occupancy
 _atom_site_fract_x
 _atom_site_fract_y
 _atom_site_fract_z
 _atom_site_thermal_displace_type
 _atom_site_B_iso_or_equiv
 _atom_site_type_symbol
La1 1.0000000000 0.8950101535 0.1049898465 0.2500000000  Biso 1.0 La
La2 1.0000000000 0.1049898465 0.8950101535 0.7500000000  Biso 1.0 La
Rh3 1.0000000000 0.6822406566 0.3177593434 0.2500000000  Biso 1.0 Rh
Rh4 1.0000000000 0.3177593434 0.6822406566 0.7500000000  Biso 1.0 Rh
Si5 1.0000000000 0.5410804795 0.4589195205 0.2500000000  Biso 1.0 Si
Si6 1.0000000000 0.4589195205 0.5410804795 0.7500000000  Biso 1.0 Si
Si7 1.0000000000 0.2492522475 0.7507477525 0.2500000000  Biso 1.0 Si
Si8 1.0000000000 0.7507477525 0.2492522475 0.7500000000  Biso 1.0 Si
