# AFLOW.org Repositories
# La1Rh1Sn2   [ORCC,ORCC,oS32] (STD_PRIM d
data_La1Rh1Sn2
_pd_phase_name La1Rh1Sn2
_cell_length_a  9.0107205639
_cell_length_b  9.0107205639
_cell_length_c  9.8216882616
_cell_angle_alpha  90.0000000000
_cell_angle_beta  90.0000000000
_cell_angle_gamma  149.6401458781
_symmetry_space_group_name_H-M  'P1'
_symmetry_Int_Tables_Number  1
loop_
_symmetry_equiv_pos_site_id
_symmetry_equiv_pos_as_xyz
  1  x,y,z
loop_
 _atom_site_label
 _atom_site_occupancy
 _atom_site_fract_x
 _atom_site_fract_y
 _atom_site_fract_z
 _atom_site_thermal_displace_type
 _atom_site_B_iso_or_equiv
 _atom_site_type_symbol
La1 1.0000000000 0.2956068844 0.7043931156 0.7500000000  Biso 1.0 La
La2 1.0000000000 0.7043931156 0.2956068844 0.2500000000  Biso 1.0 La
La3 1.0000000000 0.5000000000 0.5000000000 0.0000000000  Biso 1.0 La
La4 1.0000000000 0.5000000000 0.5000000000 0.5000000000  Biso 1.0 La
Rh5 1.0000000000 0.1474319599 0.8525680401 0.4962570977  Biso 1.0 Rh
Rh6 1.0000000000 0.8525680401 0.1474319599 0.9962570977  Biso 1.0 Rh
Rh7 1.0000000000 0.1474319599 0.8525680401 0.0037429023  Biso 1.0 Rh
Rh8 1.0000000000 0.8525680401 0.1474319599 0.5037429023  Biso 1.0 Rh
Sn9 1.0000000000 0.3026049989 0.6973950011 0.4112218325  Biso 1.0 Sn
Sn10 1.0000000000 0.6973950011 0.3026049989 0.9112218325  Biso 1.0 Sn
Sn11 1.0000000000 0.3026049989 0.6973950011 0.0887781675  Biso 1.0 Sn
Sn12 1.0000000000 0.6973950011 0.3026049989 0.5887781675  Biso 1.0 Sn
Sn13 1.0000000000 0.0914171721 0.9085828279 0.7500000000  Biso 1.0 Sn
Sn14 1.0000000000 0.9085828279 0.0914171721 0.2500000000  Biso 1.0 Sn
Sn15 1.0000000000 0.9253964353 0.0746035647 0.7500000000  Biso 1.0 Sn
Sn16 1.0000000000 0.0746035647 0.9253964353 0.2500000000  Biso 1.0 Sn
