# AFLOW.org Repositories
# La1Si1   [ORC,ORC,oP8] (STD_PRIM doi:10.
data_La1Si1
_pd_phase_name La1Si1
_cell_length_a  4.0234582341
_cell_length_b  6.1000080007
_cell_length_c  8.4922443116
_cell_angle_alpha  90.0000000000
_cell_angle_beta  90.0000000000
_cell_angle_gamma  90.0000000000
_symmetry_space_group_name_H-M  'P1'
_symmetry_Int_Tables_Number  1
loop_
_symmetry_equiv_pos_site_id
_symmetry_equiv_pos_as_xyz
  1  x,y,z
loop_
 _atom_site_label
 _atom_site_occupancy
 _atom_site_fract_x
 _atom_site_fract_y
 _atom_site_fract_z
 _atom_site_thermal_displace_type
 _atom_site_B_iso_or_equiv
 _atom_site_type_symbol
La1 1.0000000000 0.7500000000 0.8863245147 0.1792523941  Biso 1.0 La
La2 1.0000000000 0.2500000000 0.3863245147 0.3207476059  Biso 1.0 La
La3 1.0000000000 0.2500000000 0.1136754853 0.8207476059  Biso 1.0 La
La4 1.0000000000 0.7500000000 0.6136754853 0.6792523941  Biso 1.0 La
Si5 1.0000000000 0.7500000000 0.3833715114 0.0333127352  Biso 1.0 Si
Si6 1.0000000000 0.2500000000 0.8833715114 0.4666872648  Biso 1.0 Si
Si7 1.0000000000 0.2500000000 0.6166284886 0.9666872648  Biso 1.0 Si
Si8 1.0000000000 0.7500000000 0.1166284886 0.5333127352  Biso 1.0 Si
