# AFLOW.org Repositories
# La2O5Pd2   [TET,TET,tP18] (STD_PRIM doi:
data_La2O5Pd2
_pd_phase_name La2O5Pd2
_cell_length_a  6.8116691110
_cell_length_b  6.8116691110
_cell_length_c  5.7180647488
_cell_angle_alpha  90.0000000000
_cell_angle_beta  90.0000000000
_cell_angle_gamma  90.0000000000
_symmetry_space_group_name_H-M  'P1'
_symmetry_Int_Tables_Number  1
loop_
_symmetry_equiv_pos_site_id
_symmetry_equiv_pos_as_xyz
  1  x,y,z
loop_
 _atom_site_label
 _atom_site_occupancy
 _atom_site_fract_x
 _atom_site_fract_y
 _atom_site_fract_z
 _atom_site_thermal_displace_type
 _atom_site_B_iso_or_equiv
 _atom_site_type_symbol
La1 1.0000000000 0.2627582714 0.1087236469 0.0000000000  Biso 1.0 La
La2 1.0000000000 0.7372417286 0.8912763531 0.0000000000  Biso 1.0 La
La3 1.0000000000 0.8912763531 0.2627582714 0.5000000000  Biso 1.0 La
La4 1.0000000000 0.1087236469 0.7372417286 0.5000000000  Biso 1.0 La
O5 1.0000000000 0.2019338831 0.4043551820 0.2582294081  Biso 1.0 O
O6 1.0000000000 0.7980661169 0.5956448180 0.2582294081  Biso 1.0 O
O7 1.0000000000 0.5956448180 0.2019338831 0.7582294081  Biso 1.0 O
O8 1.0000000000 0.4043551820 0.7980661169 0.7582294081  Biso 1.0 O
O9 1.0000000000 0.7980661169 0.5956448180 0.7417705919  Biso 1.0 O
O10 1.0000000000 0.2019338831 0.4043551820 0.7417705919  Biso 1.0 O
O11 1.0000000000 0.4043551820 0.7980661169 0.2417705919  Biso 1.0 O
O12 1.0000000000 0.5956448180 0.2019338831 0.2417705919  Biso 1.0 O
O13 1.0000000000 0.0000000000 0.0000000000 0.2500000000  Biso 1.0 O
O14 1.0000000000 0.0000000000 0.0000000000 0.7500000000  Biso 1.0 O
Pd15 1.0000000000 0.3098408655 0.5940689953 0.0000000000  Biso 1.0 Pd
Pd16 1.0000000000 0.6901591345 0.4059310047 0.0000000000  Biso 1.0 Pd
Pd17 1.0000000000 0.4059310047 0.3098408655 0.5000000000  Biso 1.0 Pd
Pd18 1.0000000000 0.5940689953 0.6901591345 0.5000000000  Biso 1.0 Pd
