# AFLOW.org Repositories
# La2O7Zr2   [FCC,FCC,cF88] (STD_PRIM doi:
data_La2O7Zr2
_pd_phase_name La2O7Zr2
_cell_length_a  7.7456937150
_cell_length_b  7.7456937150
_cell_length_c  7.7456937150
_cell_angle_alpha  60.0000000000
_cell_angle_beta  60.0000000000
_cell_angle_gamma  60.0000000000
_symmetry_space_group_name_H-M  'P1'
_symmetry_Int_Tables_Number  1
loop_
_symmetry_equiv_pos_site_id
_symmetry_equiv_pos_as_xyz
  1  x,y,z
loop_
 _atom_site_label
 _atom_site_occupancy
 _atom_site_fract_x
 _atom_site_fract_y
 _atom_site_fract_z
 _atom_site_thermal_displace_type
 _atom_site_B_iso_or_equiv
 _atom_site_type_symbol
La1 1.0000000000 0.6250000000 0.1250000000 0.1250000000  Biso 1.0 La
La2 1.0000000000 0.1250000000 0.6250000000 0.1250000000  Biso 1.0 La
La3 1.0000000000 0.1250000000 0.1250000000 0.6250000000  Biso 1.0 La
La4 1.0000000000 0.1250000000 0.1250000000 0.1250000000  Biso 1.0 La
O5 1.0000000000 0.7064229909 0.2935770091 0.2935770091  Biso 1.0 O
O6 1.0000000000 0.2935770091 0.7064229909 0.7064229909  Biso 1.0 O
O7 1.0000000000 0.7064229909 0.2935770091 0.7064229909  Biso 1.0 O
O8 1.0000000000 0.2935770091 0.7064229909 0.2935770091  Biso 1.0 O
O9 1.0000000000 0.7064229909 0.7064229909 0.2935770091  Biso 1.0 O
O10 1.0000000000 0.2935770091 0.2935770091 0.7064229909  Biso 1.0 O
O11 1.0000000000 0.9564229909 0.5435770091 0.9564229909  Biso 1.0 O
O12 1.0000000000 0.5435770091 0.9564229909 0.5435770091  Biso 1.0 O
O13 1.0000000000 0.9564229909 0.5435770091 0.5435770091  Biso 1.0 O
O14 1.0000000000 0.5435770091 0.9564229909 0.9564229909  Biso 1.0 O
O15 1.0000000000 0.5435770091 0.5435770091 0.9564229909  Biso 1.0 O
O16 1.0000000000 0.9564229909 0.9564229909 0.5435770091  Biso 1.0 O
O17 1.0000000000 0.0000000000 0.0000000000 0.0000000000  Biso 1.0 O
O18 1.0000000000 0.2500000000 0.2500000000 0.2500000000  Biso 1.0 O
Zr19 1.0000000000 0.1250000000 0.6250000000 0.6250000000  Biso 1.0 Zr
Zr20 1.0000000000 0.6250000000 0.1250000000 0.6250000000  Biso 1.0 Zr
Zr21 1.0000000000 0.6250000000 0.6250000000 0.1250000000  Biso 1.0 Zr
Zr22 1.0000000000 0.6250000000 0.6250000000 0.6250000000  Biso 1.0 Zr
