# AFLOW.org Repositories
# La2O3   [MCLC,MCLC1,mS30] (STD_PRIM doi:
data_La2O3
_pd_phase_name La2O3
_cell_length_a  7.7165251809
_cell_length_b  7.7165251809
_cell_length_c  9.3373015951
_cell_angle_alpha  80.0582518524
_cell_angle_beta  80.0582518524
_cell_angle_gamma  28.7698787288
_symmetry_space_group_name_H-M  'P1'
_symmetry_Int_Tables_Number  1
loop_
_symmetry_equiv_pos_site_id
_symmetry_equiv_pos_as_xyz
  1  x,y,z
loop_
 _atom_site_label
 _atom_site_occupancy
 _atom_site_fract_x
 _atom_site_fract_y
 _atom_site_fract_z
 _atom_site_thermal_displace_type
 _atom_site_B_iso_or_equiv
 _atom_site_type_symbol
La1 1.0000000000 0.3655668087 0.3655668087 0.4912918889  Biso 1.0 La
La2 1.0000000000 0.6344331913 0.6344331913 0.5087081111  Biso 1.0 La
La3 1.0000000000 0.3095688106 0.3095688106 0.1382887664  Biso 1.0 La
La4 1.0000000000 0.6904311894 0.6904311894 0.8617112336  Biso 1.0 La
La5 1.0000000000 0.0333656285 0.0333656285 0.1880487249  Biso 1.0 La
La6 1.0000000000 0.9666343715 0.9666343715 0.8119512751  Biso 1.0 La
O7 1.0000000000 0.8710099991 0.8710099991 0.2868043771  Biso 1.0 O
O8 1.0000000000 0.1289900009 0.1289900009 0.7131956229  Biso 1.0 O
O9 1.0000000000 0.1757712378 0.1757712378 0.0251739932  Biso 1.0 O
O10 1.0000000000 0.8242287622 0.8242287622 0.9748260068  Biso 1.0 O
O11 1.0000000000 0.2007692835 0.2007692835 0.3722562663  Biso 1.0 O
O12 1.0000000000 0.7992307165 0.7992307165 0.6277437337  Biso 1.0 O
O13 1.0000000000 0.5256229399 0.5256229399 0.3437677023  Biso 1.0 O
O14 1.0000000000 0.4743770601 0.4743770601 0.6562322977  Biso 1.0 O
O15 1.0000000000 0.5000000000 0.5000000000 0.0000000000  Biso 1.0 O
