# AFLOW.org Repositories
# La2O3   [HEX,HEX,hP5] (STD_PRIM doi:10.1
data_La2O3
_pd_phase_name La2O3
_cell_length_a  6.3896652636
_cell_length_b  6.3896652636
_cell_length_c  3.3283421312
_cell_angle_alpha  90.0000000000
_cell_angle_beta  90.0000000000
_cell_angle_gamma  120.0000000000
_symmetry_space_group_name_H-M  'P1'
_symmetry_Int_Tables_Number  1
loop_
_symmetry_equiv_pos_site_id
_symmetry_equiv_pos_as_xyz
  1  x,y,z
loop_
 _atom_site_label
 _atom_site_occupancy
 _atom_site_fract_x
 _atom_site_fract_y
 _atom_site_fract_z
 _atom_site_thermal_displace_type
 _atom_site_B_iso_or_equiv
 _atom_site_type_symbol
La1 1.0000000000 0.6666788973 0.3332673441 0.4985298530  Biso 1.0 La
La2 1.0000000000 0.3334115532 0.6667326559 0.5014701470  Biso 1.0 La
O3 1.0000000000 0.4970846083 0.0000000000 0.0000000000  Biso 1.0 O
O4 1.0000000000 0.0000000000 0.4971399980 0.0000000000  Biso 1.0 O
O5 1.0000000000 0.5028600020 0.5028600020 0.0000000000  Biso 1.0 O
