# AFLOW.org Repositories
# La2Pb1Pd2   [TET,TET,tP10] (STD_PRIM doi
data_La2Pb1Pd2
_pd_phase_name La2Pb1Pd2
_cell_length_a  8.0973430426
_cell_length_b  8.0973430426
_cell_length_c  3.9635683430
_cell_angle_alpha  90.0000000000
_cell_angle_beta  90.0000000000
_cell_angle_gamma  90.0000000000
_symmetry_space_group_name_H-M  'P1'
_symmetry_Int_Tables_Number  1
loop_
_symmetry_equiv_pos_site_id
_symmetry_equiv_pos_as_xyz
  1  x,y,z
loop_
 _atom_site_label
 _atom_site_occupancy
 _atom_site_fract_x
 _atom_site_fract_y
 _atom_site_fract_z
 _atom_site_thermal_displace_type
 _atom_site_B_iso_or_equiv
 _atom_site_type_symbol
La1 1.0000000000 0.1778336291 0.6778336291 0.5000000000  Biso 1.0 La
La2 1.0000000000 0.8221663709 0.3221663709 0.5000000000  Biso 1.0 La
La3 1.0000000000 0.3221663709 0.1778336291 0.5000000000  Biso 1.0 La
La4 1.0000000000 0.6778336291 0.8221663709 0.5000000000  Biso 1.0 La
Pb5 1.0000000000 0.0000000000 0.0000000000 0.0000000000  Biso 1.0 Pb
Pb6 1.0000000000 0.5000000000 0.5000000000 0.0000000000  Biso 1.0 Pb
Pd7 1.0000000000 0.3766088305 0.8766088305 0.0000000000  Biso 1.0 Pd
Pd8 1.0000000000 0.6233911695 0.1233911695 0.0000000000  Biso 1.0 Pd
Pd9 1.0000000000 0.1233911695 0.3766088305 0.0000000000  Biso 1.0 Pd
Pd10 1.0000000000 0.8766088305 0.6233911695 0.0000000000  Biso 1.0 Pd
