# AFLOW.org Repositories
# La2S3   [ORC,ORC,oP20] (STD_PRIM doi:10.
data_La2S3
_pd_phase_name La2S3
_cell_length_a  4.1859586477
_cell_length_b  7.6783859162
_cell_length_c  16.0447853886
_cell_angle_alpha  90.0000000000
_cell_angle_beta  90.0000000000
_cell_angle_gamma  90.0000000000
_symmetry_space_group_name_H-M  'P1'
_symmetry_Int_Tables_Number  1
loop_
_symmetry_equiv_pos_site_id
_symmetry_equiv_pos_as_xyz
  1  x,y,z
loop_
 _atom_site_label
 _atom_site_occupancy
 _atom_site_fract_x
 _atom_site_fract_y
 _atom_site_fract_z
 _atom_site_thermal_displace_type
 _atom_site_B_iso_or_equiv
 _atom_site_type_symbol
La1 1.0000000000 0.2500000000 0.7645297010 0.4552268534  Biso 1.0 La
La2 1.0000000000 0.7500000000 0.7354702990 0.9552268534  Biso 1.0 La
La3 1.0000000000 0.7500000000 0.2354702990 0.5447731466  Biso 1.0 La
La4 1.0000000000 0.2500000000 0.2645297010 0.0447731466  Biso 1.0 La
La5 1.0000000000 0.2500000000 0.1465956352 0.7959736539  Biso 1.0 La
La6 1.0000000000 0.7500000000 0.3534043648 0.2959736539  Biso 1.0 La
La7 1.0000000000 0.7500000000 0.8534043648 0.2040263461  Biso 1.0 La
La8 1.0000000000 0.2500000000 0.6465956352 0.7040263461  Biso 1.0 La
S9 1.0000000000 0.2500000000 0.0102163432 0.6096152548  Biso 1.0 S
S10 1.0000000000 0.7500000000 0.4897836568 0.1096152548  Biso 1.0 S
S11 1.0000000000 0.7500000000 0.9897836568 0.3903847452  Biso 1.0 S
S12 1.0000000000 0.2500000000 0.5102163432 0.8903847452  Biso 1.0 S
S13 1.0000000000 0.2500000000 0.1438473582 0.2195575319  Biso 1.0 S
S14 1.0000000000 0.7500000000 0.3561526418 0.7195575319  Biso 1.0 S
S15 1.0000000000 0.7500000000 0.8561526418 0.7804424681  Biso 1.0 S
S16 1.0000000000 0.2500000000 0.6438473582 0.2804424681  Biso 1.0 S
S17 1.0000000000 0.2500000000 0.3726238369 0.4329412119  Biso 1.0 S
S18 1.0000000000 0.7500000000 0.1273761631 0.9329412119  Biso 1.0 S
S19 1.0000000000 0.7500000000 0.6273761631 0.5670587881  Biso 1.0 S
S20 1.0000000000 0.2500000000 0.8726238369 0.0670587881  Biso 1.0 S
