# AFLOW.org Repositories
# La3Pb13Rh4   [CUB,CUB,cP40] (STD_PRIM do
data_La3Pb13Rh4
_pd_phase_name La3Pb13Rh4
_cell_length_a  10.1965898790
_cell_length_b  10.1965898790
_cell_length_c  10.1965898790
_cell_angle_alpha  90.0000000000
_cell_angle_beta  90.0000000000
_cell_angle_gamma  90.0000000000
_symmetry_space_group_name_H-M  'P1'
_symmetry_Int_Tables_Number  1
loop_
_symmetry_equiv_pos_site_id
_symmetry_equiv_pos_as_xyz
  1  x,y,z
loop_
 _atom_site_label
 _atom_site_occupancy
 _atom_site_fract_x
 _atom_site_fract_y
 _atom_site_fract_z
 _atom_site_thermal_displace_type
 _atom_site_B_iso_or_equiv
 _atom_site_type_symbol
La1 1.0000000000 0.7500000000 0.0000000000 0.5000000000  Biso 1.0 La
La2 1.0000000000 0.2500000000 0.0000000000 0.5000000000  Biso 1.0 La
La3 1.0000000000 0.5000000000 0.7500000000 0.0000000000  Biso 1.0 La
La4 1.0000000000 0.5000000000 0.2500000000 0.0000000000  Biso 1.0 La
La5 1.0000000000 0.0000000000 0.5000000000 0.2500000000  Biso 1.0 La
La6 1.0000000000 0.0000000000 0.5000000000 0.7500000000  Biso 1.0 La
Pb7 1.0000000000 0.0000000000 0.0000000000 0.0000000000  Biso 1.0 Pb
Pb8 1.0000000000 0.5000000000 0.5000000000 0.5000000000  Biso 1.0 Pb
Pb9 1.0000000000 0.0000000000 0.8445161222 0.3060044382  Biso 1.0 Pb
Pb10 1.0000000000 0.0000000000 0.1554838778 0.3060044382  Biso 1.0 Pb
Pb11 1.0000000000 0.0000000000 0.8445161222 0.6939955618  Biso 1.0 Pb
Pb12 1.0000000000 0.0000000000 0.1554838778 0.6939955618  Biso 1.0 Pb
Pb13 1.0000000000 0.6939955618 0.0000000000 0.1554838778  Biso 1.0 Pb
Pb14 1.0000000000 0.6939955618 0.0000000000 0.8445161222  Biso 1.0 Pb
Pb15 1.0000000000 0.3060044382 0.0000000000 0.1554838778  Biso 1.0 Pb
Pb16 1.0000000000 0.3060044382 0.0000000000 0.8445161222  Biso 1.0 Pb
Pb17 1.0000000000 0.8445161222 0.6939955618 0.0000000000  Biso 1.0 Pb
Pb18 1.0000000000 0.1554838778 0.6939955618 0.0000000000  Biso 1.0 Pb
Pb19 1.0000000000 0.8445161222 0.3060044382 0.0000000000  Biso 1.0 Pb
Pb20 1.0000000000 0.1554838778 0.3060044382 0.0000000000  Biso 1.0 Pb
Pb21 1.0000000000 0.3445161222 0.5000000000 0.1939955618  Biso 1.0 Pb
Pb22 1.0000000000 0.6554838778 0.5000000000 0.1939955618  Biso 1.0 Pb
Pb23 1.0000000000 0.3445161222 0.5000000000 0.8060044382  Biso 1.0 Pb
Pb24 1.0000000000 0.6554838778 0.5000000000 0.8060044382  Biso 1.0 Pb
Pb25 1.0000000000 0.5000000000 0.1939955618 0.3445161222  Biso 1.0 Pb
Pb26 1.0000000000 0.5000000000 0.1939955618 0.6554838778  Biso 1.0 Pb
Pb27 1.0000000000 0.5000000000 0.8060044382 0.3445161222  Biso 1.0 Pb
Pb28 1.0000000000 0.5000000000 0.8060044382 0.6554838778  Biso 1.0 Pb
Pb29 1.0000000000 0.1939955618 0.3445161222 0.5000000000  Biso 1.0 Pb
Pb30 1.0000000000 0.1939955618 0.6554838778 0.5000000000  Biso 1.0 Pb
Pb31 1.0000000000 0.8060044382 0.3445161222 0.5000000000  Biso 1.0 Pb
Pb32 1.0000000000 0.8060044382 0.6554838778 0.5000000000  Biso 1.0 Pb
Rh33 1.0000000000 0.7500000000 0.7500000000 0.2500000000  Biso 1.0 Rh
Rh34 1.0000000000 0.2500000000 0.2500000000 0.2500000000  Biso 1.0 Rh
Rh35 1.0000000000 0.2500000000 0.7500000000 0.7500000000  Biso 1.0 Rh
Rh36 1.0000000000 0.7500000000 0.2500000000 0.7500000000  Biso 1.0 Rh
Rh37 1.0000000000 0.2500000000 0.2500000000 0.7500000000  Biso 1.0 Rh
Rh38 1.0000000000 0.7500000000 0.7500000000 0.7500000000  Biso 1.0 Rh
Rh39 1.0000000000 0.7500000000 0.2500000000 0.2500000000  Biso 1.0 Rh
Rh40 1.0000000000 0.2500000000 0.7500000000 0.2500000000  Biso 1.0 Rh
