# AFLOW.org Repositories
# La3Sn4   [ORCC,ORCC,oS28] (STD_PRIM doi:
data_La3Sn4
_pd_phase_name La3Sn4
_cell_length_a  6.4744877408
_cell_length_b  6.4744877408
_cell_length_c  16.2139699296
_cell_angle_alpha  90.0000000000
_cell_angle_beta  90.0000000000
_cell_angle_gamma  138.3692661083
_symmetry_space_group_name_H-M  'P1'
_symmetry_Int_Tables_Number  1
loop_
_symmetry_equiv_pos_site_id
_symmetry_equiv_pos_as_xyz
  1  x,y,z
loop_
 _atom_site_label
 _atom_site_occupancy
 _atom_site_fract_x
 _atom_site_fract_y
 _atom_site_fract_z
 _atom_site_thermal_displace_type
 _atom_site_B_iso_or_equiv
 _atom_site_type_symbol
La1 1.0000000000 0.0446669298 0.9553330702 0.7500000000  Biso 1.0 La
La2 1.0000000000 0.9553330702 0.0446669298 0.2500000000  Biso 1.0 La
La3 1.0000000000 0.3279875369 0.6720124631 0.9027127603  Biso 1.0 La
La4 1.0000000000 0.6720124631 0.3279875369 0.4027127603  Biso 1.0 La
La5 1.0000000000 0.3279875369 0.6720124631 0.5972872397  Biso 1.0 La
La6 1.0000000000 0.6720124631 0.3279875369 0.0972872397  Biso 1.0 La
Sn7 1.0000000000 0.7764163903 0.2235836097 0.7500000000  Biso 1.0 Sn
Sn8 1.0000000000 0.2235836097 0.7764163903 0.2500000000  Biso 1.0 Sn
Sn9 1.0000000000 0.6168715089 0.3831284911 0.8922116491  Biso 1.0 Sn
Sn10 1.0000000000 0.3831284911 0.6168715089 0.3922116491  Biso 1.0 Sn
Sn11 1.0000000000 0.6168715089 0.3831284911 0.6077883509  Biso 1.0 Sn
Sn12 1.0000000000 0.3831284911 0.6168715089 0.1077883509  Biso 1.0 Sn
Sn13 1.0000000000 0.0000000000 0.0000000000 0.0000000000  Biso 1.0 Sn
Sn14 1.0000000000 0.0000000000 0.0000000000 0.5000000000  Biso 1.0 Sn
