# AFLOW.org Repositories
# La3Tl5   [ORCC,ORCC,oS32] (STD_PRIM doi:
data_La3Tl5
_pd_phase_name La3Tl5
_cell_length_a  6.8044216739
_cell_length_b  6.8044216739
_cell_length_c  10.8723262373
_cell_angle_alpha  90.0000000000
_cell_angle_beta  90.0000000000
_cell_angle_gamma  102.2061116454
_symmetry_space_group_name_H-M  'P1'
_symmetry_Int_Tables_Number  1
loop_
_symmetry_equiv_pos_site_id
_symmetry_equiv_pos_as_xyz
  1  x,y,z
loop_
 _atom_site_label
 _atom_site_occupancy
 _atom_site_fract_x
 _atom_site_fract_y
 _atom_site_fract_z
 _atom_site_thermal_displace_type
 _atom_site_B_iso_or_equiv
 _atom_site_type_symbol
La1 1.0000000000 0.6285322874 0.6285322874 0.2500000000  Biso 1.0 La
La2 1.0000000000 0.3714677126 0.3714677126 0.7500000000  Biso 1.0 La
La3 1.0000000000 0.2031191900 0.7968808100 0.0000000000  Biso 1.0 La
La4 1.0000000000 0.7968808100 0.2031191900 0.5000000000  Biso 1.0 La
La5 1.0000000000 0.7968808100 0.2031191900 0.0000000000  Biso 1.0 La
La6 1.0000000000 0.2031191900 0.7968808100 0.5000000000  Biso 1.0 La
Tl7 1.0000000000 0.0121806515 0.0121806515 0.2500000000  Biso 1.0 Tl
Tl8 1.0000000000 0.9878193485 0.9878193485 0.7500000000  Biso 1.0 Tl
Tl9 1.0000000000 0.3078383416 0.3078383416 0.4536311364  Biso 1.0 Tl
Tl10 1.0000000000 0.6921616584 0.6921616584 0.9536311364  Biso 1.0 Tl
Tl11 1.0000000000 0.3078383416 0.3078383416 0.0463688636  Biso 1.0 Tl
Tl12 1.0000000000 0.6921616584 0.6921616584 0.5463688636  Biso 1.0 Tl
Tl13 1.0000000000 0.5054194129 0.0738069342 0.2500000000  Biso 1.0 Tl
Tl14 1.0000000000 0.4945805871 0.9261930658 0.7500000000  Biso 1.0 Tl
Tl15 1.0000000000 0.0738069342 0.5054194129 0.2500000000  Biso 1.0 Tl
Tl16 1.0000000000 0.9261930658 0.4945805871 0.7500000000  Biso 1.0 Tl
