# AFLOW.org Repositories
# La4N2S3   [ORC,ORC,oP18] (STD_PRIM doi:1
data_La4N2S3
_pd_phase_name La4N2S3
_cell_length_a  4.1450948428
_cell_length_b  6.6060620517
_cell_length_c  15.9299477060
_cell_angle_alpha  90.0000000000
_cell_angle_beta  90.0000000000
_cell_angle_gamma  90.0000000000
_symmetry_space_group_name_H-M  'P1'
_symmetry_Int_Tables_Number  1
loop_
_symmetry_equiv_pos_site_id
_symmetry_equiv_pos_as_xyz
  1  x,y,z
loop_
 _atom_site_label
 _atom_site_occupancy
 _atom_site_fract_x
 _atom_site_fract_y
 _atom_site_fract_z
 _atom_site_thermal_displace_type
 _atom_site_B_iso_or_equiv
 _atom_site_type_symbol
La1 1.0000000000 0.0000000000 0.2245264704 0.4350789774  Biso 1.0 La
La2 1.0000000000 0.0000000000 0.7754735296 0.5649210226  Biso 1.0 La
La3 1.0000000000 0.5000000000 0.2754735296 0.9350789774  Biso 1.0 La
La4 1.0000000000 0.5000000000 0.7245264704 0.0649210226  Biso 1.0 La
La5 1.0000000000 0.0000000000 0.2661245936 0.1567538520  Biso 1.0 La
La6 1.0000000000 0.0000000000 0.7338754064 0.8432461480  Biso 1.0 La
La7 1.0000000000 0.5000000000 0.2338754064 0.6567538520  Biso 1.0 La
La8 1.0000000000 0.5000000000 0.7661245936 0.3432461480  Biso 1.0 La
N9 1.0000000000 0.0000000000 0.1315569272 0.5848334301  Biso 1.0 N
N10 1.0000000000 0.0000000000 0.8684430728 0.4151665699  Biso 1.0 N
N11 1.0000000000 0.5000000000 0.3684430728 0.0848334301  Biso 1.0 N
N12 1.0000000000 0.5000000000 0.6315569272 0.9151665699  Biso 1.0 N
S13 1.0000000000 0.0000000000 0.0000000000 0.0000000000  Biso 1.0 S
S14 1.0000000000 0.5000000000 0.5000000000 0.5000000000  Biso 1.0 S
S15 1.0000000000 0.0000000000 0.2668572813 0.8012170800  Biso 1.0 S
S16 1.0000000000 0.0000000000 0.7331427187 0.1987829200  Biso 1.0 S
S17 1.0000000000 0.5000000000 0.2331427187 0.3012170800  Biso 1.0 S
S18 1.0000000000 0.5000000000 0.7668572813 0.6987829200  Biso 1.0 S
