# AFLOW.org Repositories
# La4O4Se3   [ORCC,ORCC,oS22] (STD_PRIM do
data_La4O4Se3
_pd_phase_name La4O4Se3
_cell_length_a  7.0305245235
_cell_length_b  7.0305245235
_cell_length_c  8.6649257505
_cell_angle_alpha  90.0000000000
_cell_angle_beta  90.0000000000
_cell_angle_gamma  145.6698745766
_symmetry_space_group_name_H-M  'P1'
_symmetry_Int_Tables_Number  1
loop_
_symmetry_equiv_pos_site_id
_symmetry_equiv_pos_as_xyz
  1  x,y,z
loop_
 _atom_site_label
 _atom_site_occupancy
 _atom_site_fract_x
 _atom_site_fract_y
 _atom_site_fract_z
 _atom_site_thermal_displace_type
 _atom_site_B_iso_or_equiv
 _atom_site_type_symbol
La1 1.0000000000 0.0000000000 0.0000000000 0.0000000000  Biso 1.0 La
La2 1.0000000000 0.0174081016 0.9825918984 0.5000000000  Biso 1.0 La
La3 1.0000000000 0.6855064914 0.3144935086 0.7631266390  Biso 1.0 La
La4 1.0000000000 0.6855064914 0.3144935086 0.2368733610  Biso 1.0 La
O5 1.0000000000 0.0896668168 0.9103331832 0.7562766635  Biso 1.0 O
O6 1.0000000000 0.0896668168 0.9103331832 0.2437233365  Biso 1.0 O
O7 1.0000000000 0.5880396183 0.4119603817 0.0000000000  Biso 1.0 O
O8 1.0000000000 0.6157040687 0.3842959313 0.5000000000  Biso 1.0 O
Se9 1.0000000000 0.3568713156 0.6431286844 0.6460713626  Biso 1.0 Se
Se10 1.0000000000 0.3568713156 0.6431286844 0.3539286374  Biso 1.0 Se
Se11 1.0000000000 0.3131435976 0.6868564024 0.0000000000  Biso 1.0 Se
