# AFLOW.org Repositories
# La7Pt3   [HEX,HEX,hP20] (STD_PRIM doi:10
data_La7Pt3
_pd_phase_name La7Pt3
_cell_length_a  10.4604674421
_cell_length_b  10.4604674421
_cell_length_c  6.6297155333
_cell_angle_alpha  90.0000000000
_cell_angle_beta  90.0000000000
_cell_angle_gamma  120.0000000000
_symmetry_space_group_name_H-M  'P1'
_symmetry_Int_Tables_Number  1
loop_
_symmetry_equiv_pos_site_id
_symmetry_equiv_pos_as_xyz
  1  x,y,z
loop_
 _atom_site_label
 _atom_site_occupancy
 _atom_site_fract_x
 _atom_site_fract_y
 _atom_site_fract_z
 _atom_site_thermal_displace_type
 _atom_site_B_iso_or_equiv
 _atom_site_type_symbol
La1 1.0000000000 0.3333497186 0.6666748593 0.0442141816  Biso 1.0 La
La2 1.0000000000 0.6666502814 0.3333251407 0.5442141816  Biso 1.0 La
La3 1.0000000000 0.7475094216 0.8737547108 0.2511607975  Biso 1.0 La
La4 1.0000000000 0.1262486190 0.8737478116 0.2511581005  Biso 1.0 La
La5 1.0000000000 0.1262486190 0.2525008074 0.2511581005  Biso 1.0 La
La6 1.0000000000 0.2524905784 0.1262452892 0.7511607975  Biso 1.0 La
La7 1.0000000000 0.8737513810 0.1262521884 0.7511581005  Biso 1.0 La
La8 1.0000000000 0.8737513810 0.7474991926 0.7511581005  Biso 1.0 La
La9 1.0000000000 0.9229694040 0.4614847020 0.0607203738  Biso 1.0 La
La10 1.0000000000 0.5385176548 0.4614801178 0.0607138035  Biso 1.0 La
La11 1.0000000000 0.5385176548 0.0770375371 0.0607138035  Biso 1.0 La
La12 1.0000000000 0.0770305960 0.5385152980 0.5607203738  Biso 1.0 La
La13 1.0000000000 0.4614823452 0.5385198822 0.5607138035  Biso 1.0 La
La14 1.0000000000 0.4614823452 0.9229624629 0.5607138035  Biso 1.0 La
Pt15 1.0000000000 0.3766688579 0.1883344290 0.3090472258  Biso 1.0 Pt
Pt16 1.0000000000 0.8116608137 0.1883426228 0.3090568067  Biso 1.0 Pt
Pt17 1.0000000000 0.8116608137 0.6233181908 0.3090568067  Biso 1.0 Pt
Pt18 1.0000000000 0.6233311421 0.8116655710 0.8090472258  Biso 1.0 Pt
Pt19 1.0000000000 0.1883391863 0.8116573772 0.8090568067  Biso 1.0 Pt
Pt20 1.0000000000 0.1883391863 0.3766818092 0.8090568067  Biso 1.0 Pt
