# AFLOW.org Repositories
# Li10Pb3   [CUB,CUB,cP52] (STD_PRIM doi:1
data_Li10Pb3
_pd_phase_name Li10Pb3
_cell_length_a  10.1180487336
_cell_length_b  10.1180487336
_cell_length_c  10.1180487336
_cell_angle_alpha  90.0000000000
_cell_angle_beta  90.0000000000
_cell_angle_gamma  90.0000000000
_symmetry_space_group_name_H-M  'P1'
_symmetry_Int_Tables_Number  1
loop_
_symmetry_equiv_pos_site_id
_symmetry_equiv_pos_as_xyz
  1  x,y,z
loop_
 _atom_site_label
 _atom_site_occupancy
 _atom_site_fract_x
 _atom_site_fract_y
 _atom_site_fract_z
 _atom_site_thermal_displace_type
 _atom_site_B_iso_or_equiv
 _atom_site_type_symbol
Li1 1.0000000000 0.8853275693 0.8853275693 0.1146724307  Biso 1.0 Li
Li2 1.0000000000 0.1146724307 0.1146724307 0.1146724307  Biso 1.0 Li
Li3 1.0000000000 0.1146724307 0.8853275693 0.8853275693  Biso 1.0 Li
Li4 1.0000000000 0.8853275693 0.1146724307 0.8853275693  Biso 1.0 Li
Li5 1.0000000000 0.3946388834 0.3946388834 0.6053611166  Biso 1.0 Li
Li6 1.0000000000 0.6053611166 0.6053611166 0.6053611166  Biso 1.0 Li
Li7 1.0000000000 0.6053611166 0.3946388834 0.3946388834  Biso 1.0 Li
Li8 1.0000000000 0.3946388834 0.6053611166 0.3946388834  Biso 1.0 Li
Li9 1.0000000000 0.1843012172 0.1843012172 0.8156987828  Biso 1.0 Li
Li10 1.0000000000 0.8156987828 0.8156987828 0.8156987828  Biso 1.0 Li
Li11 1.0000000000 0.8156987828 0.1843012172 0.1843012172  Biso 1.0 Li
Li12 1.0000000000 0.1843012172 0.8156987828 0.1843012172  Biso 1.0 Li
Li13 1.0000000000 0.6846929429 0.6846929429 0.3153070571  Biso 1.0 Li
Li14 1.0000000000 0.3153070571 0.3153070571 0.3153070571  Biso 1.0 Li
Li15 1.0000000000 0.3153070571 0.6846929429 0.6846929429  Biso 1.0 Li
Li16 1.0000000000 0.6846929429 0.3153070571 0.6846929429  Biso 1.0 Li
Li17 1.0000000000 0.6494811107 0.0000000000 0.0000000000  Biso 1.0 Li
Li18 1.0000000000 0.3505188893 0.0000000000 0.0000000000  Biso 1.0 Li
Li19 1.0000000000 0.0000000000 0.6494811107 0.0000000000  Biso 1.0 Li
Li20 1.0000000000 0.0000000000 0.3505188893 0.0000000000  Biso 1.0 Li
Li21 1.0000000000 0.0000000000 0.0000000000 0.3505188893  Biso 1.0 Li
Li22 1.0000000000 0.0000000000 0.0000000000 0.6494811107  Biso 1.0 Li
Li23 1.0000000000 0.1426652566 0.5000000000 0.5000000000  Biso 1.0 Li
Li24 1.0000000000 0.8573347434 0.5000000000 0.5000000000  Biso 1.0 Li
Li25 1.0000000000 0.5000000000 0.1426652566 0.5000000000  Biso 1.0 Li
Li26 1.0000000000 0.5000000000 0.8573347434 0.5000000000  Biso 1.0 Li
Li27 1.0000000000 0.5000000000 0.5000000000 0.8573347434  Biso 1.0 Li
Li28 1.0000000000 0.5000000000 0.5000000000 0.1426652566  Biso 1.0 Li
Li29 1.0000000000 0.1892509994 0.1892509994 0.5279476308  Biso 1.0 Li
Li30 1.0000000000 0.8107490006 0.8107490006 0.5279476308  Biso 1.0 Li
Li31 1.0000000000 0.8107490006 0.1892509994 0.4720523692  Biso 1.0 Li
Li32 1.0000000000 0.1892509994 0.8107490006 0.4720523692  Biso 1.0 Li
Li33 1.0000000000 0.4720523692 0.1892509994 0.8107490006  Biso 1.0 Li
Li34 1.0000000000 0.4720523692 0.8107490006 0.1892509994  Biso 1.0 Li
Li35 1.0000000000 0.5279476308 0.8107490006 0.8107490006  Biso 1.0 Li
Li36 1.0000000000 0.5279476308 0.1892509994 0.1892509994  Biso 1.0 Li
Li37 1.0000000000 0.1892509994 0.4720523692 0.8107490006  Biso 1.0 Li
Li38 1.0000000000 0.8107490006 0.4720523692 0.1892509994  Biso 1.0 Li
Li39 1.0000000000 0.1892509994 0.5279476308 0.1892509994  Biso 1.0 Li
Li40 1.0000000000 0.8107490006 0.5279476308 0.8107490006  Biso 1.0 Li
Pb41 1.0000000000 0.6847978495 0.6847978495 0.0291587747  Biso 1.0 Pb
Pb42 1.0000000000 0.3152021505 0.3152021505 0.0291587747  Biso 1.0 Pb
Pb43 1.0000000000 0.3152021505 0.6847978495 0.9708412253  Biso 1.0 Pb
Pb44 1.0000000000 0.6847978495 0.3152021505 0.9708412253  Biso 1.0 Pb
Pb45 1.0000000000 0.9708412253 0.6847978495 0.3152021505  Biso 1.0 Pb
Pb46 1.0000000000 0.9708412253 0.3152021505 0.6847978495  Biso 1.0 Pb
Pb47 1.0000000000 0.0291587747 0.3152021505 0.3152021505  Biso 1.0 Pb
Pb48 1.0000000000 0.0291587747 0.6847978495 0.6847978495  Biso 1.0 Pb
Pb49 1.0000000000 0.6847978495 0.9708412253 0.3152021505  Biso 1.0 Pb
Pb50 1.0000000000 0.3152021505 0.9708412253 0.6847978495  Biso 1.0 Pb
Pb51 1.0000000000 0.6847978495 0.0291587747 0.6847978495  Biso 1.0 Pb
Pb52 1.0000000000 0.3152021505 0.0291587747 0.3152021505  Biso 1.0 Pb
