# AFLOW.org Repositories
# Li1Mg8Si4   [CUB,CUB,cP13] (STD_PRIM doi
data_Li1Mg8Si4
_pd_phase_name Li1Mg8Si4
_cell_length_a  6.4046070710
_cell_length_b  6.4046070710
_cell_length_c  6.4046070710
_cell_angle_alpha  90.0000000000
_cell_angle_beta  90.0000000000
_cell_angle_gamma  90.0000000000
_symmetry_space_group_name_H-M  'P1'
_symmetry_Int_Tables_Number  1
loop_
_symmetry_equiv_pos_site_id
_symmetry_equiv_pos_as_xyz
  1  x,y,z
loop_
 _atom_site_label
 _atom_site_occupancy
 _atom_site_fract_x
 _atom_site_fract_y
 _atom_site_fract_z
 _atom_site_thermal_displace_type
 _atom_site_B_iso_or_equiv
 _atom_site_type_symbol
Li1 1.0000000000 0.5000000000 0.0000000000 0.0000000000  Biso 1.0 Li
Mg2 1.0000000000 0.7562710586 0.7437289414 0.2562710586  Biso 1.0 Mg
Mg3 1.0000000000 0.2437289414 0.2562710586 0.2562710586  Biso 1.0 Mg
Mg4 1.0000000000 0.2437289414 0.7437289414 0.7437289414  Biso 1.0 Mg
Mg5 1.0000000000 0.7562710586 0.2562710586 0.7437289414  Biso 1.0 Mg
Mg6 1.0000000000 0.7562710586 0.7437289414 0.7437289414  Biso 1.0 Mg
Mg7 1.0000000000 0.2437289414 0.2562710586 0.7437289414  Biso 1.0 Mg
Mg8 1.0000000000 0.2437289414 0.7437289414 0.2562710586  Biso 1.0 Mg
Mg9 1.0000000000 0.7562710586 0.2562710586 0.2562710586  Biso 1.0 Mg
Si10 1.0000000000 0.0000000000 0.0000000000 0.0000000000  Biso 1.0 Si
Si11 1.0000000000 0.0000000000 0.5000000000 0.5000000000  Biso 1.0 Si
Si12 1.0000000000 0.5000000000 0.0000000000 0.5000000000  Biso 1.0 Si
Si13 1.0000000000 0.5000000000 0.5000000000 0.0000000000  Biso 1.0 Si
