# AFLOW.org Repositories
# Li1N2P1   [BCT,BCT2,tI16] (STD_PRIM doi:
data_Li1N2P1
_pd_phase_name Li1N2P1
_cell_length_a  4.8736648019
_cell_length_b  4.8736648019
_cell_length_c  4.8736648019
_cell_angle_alpha  124.0252319748
_cell_angle_beta  124.0252319748
_cell_angle_gamma  83.1589195469
_symmetry_space_group_name_H-M  'P1'
_symmetry_Int_Tables_Number  1
loop_
_symmetry_equiv_pos_site_id
_symmetry_equiv_pos_as_xyz
  1  x,y,z
loop_
 _atom_site_label
 _atom_site_occupancy
 _atom_site_fract_x
 _atom_site_fract_y
 _atom_site_fract_z
 _atom_site_thermal_displace_type
 _atom_site_B_iso_or_equiv
 _atom_site_type_symbol
Li1 1.0000000000 0.5000000000 0.5000000000 0.0000000000  Biso 1.0 Li
Li2 1.0000000000 0.7500000000 0.2500000000 0.5000000000  Biso 1.0 Li
N3 1.0000000000 0.6250000000 0.0415961941 0.9165961941  Biso 1.0 N
N4 1.0000000000 0.1250000000 0.7084038059 0.0834038059  Biso 1.0 N
N5 1.0000000000 0.2915961941 0.3750000000 0.4165961941  Biso 1.0 N
N6 1.0000000000 0.9584038059 0.8750000000 0.5834038059  Biso 1.0 N
P7 1.0000000000 0.0000000000 0.0000000000 0.0000000000  Biso 1.0 P
P8 1.0000000000 0.2500000000 0.7500000000 0.5000000000  Biso 1.0 P
