# AFLOW.org Repositories
# Li1Nb1O2   [HEX,HEX,hP8] (STD_PRIM doi:1
data_Li1Nb1O2
_pd_phase_name Li1Nb1O2
_cell_length_a  2.9348062058
_cell_length_b  2.9348062058
_cell_length_c  10.5531072620
_cell_angle_alpha  90.0000000000
_cell_angle_beta  90.0000000000
_cell_angle_gamma  120.0000000000
_symmetry_space_group_name_H-M  'P1'
_symmetry_Int_Tables_Number  1
loop_
_symmetry_equiv_pos_site_id
_symmetry_equiv_pos_as_xyz
  1  x,y,z
loop_
 _atom_site_label
 _atom_site_occupancy
 _atom_site_fract_x
 _atom_site_fract_y
 _atom_site_fract_z
 _atom_site_thermal_displace_type
 _atom_site_B_iso_or_equiv
 _atom_site_type_symbol
Li1 1.0000000000 0.0000000000 0.0000000000 0.0000000000  Biso 1.0 Li
Li2 1.0000000000 0.0000000000 0.0000000000 0.5000000000  Biso 1.0 Li
Nb3 1.0000000000 0.3333513369 0.6667026738 0.2500000000  Biso 1.0 Nb
Nb4 1.0000000000 0.6666486631 0.3332973262 0.7500000000  Biso 1.0 Nb
O5 1.0000000000 0.6666728097 0.3333456193 0.1237976604  Biso 1.0 O
O6 1.0000000000 0.3333271903 0.6666543807 0.6237976604  Biso 1.0 O
O7 1.0000000000 0.3333271903 0.6666543807 0.8762023396  Biso 1.0 O
O8 1.0000000000 0.6666728097 0.3333456193 0.3762023396  Biso 1.0 O
