# AFLOW.org Repositories
# Li1Ru1Sn4   [BCT,BCT2,tI24] (STD_PRIM do
data_Li1Ru1Sn4
_pd_phase_name Li1Ru1Sn4
_cell_length_a  7.4722590817
_cell_length_b  7.4722590817
_cell_length_c  7.4722590817
_cell_angle_alpha  126.2184865345
_cell_angle_beta  126.2184865345
_cell_angle_gamma  79.5293394267
_symmetry_space_group_name_H-M  'P1'
_symmetry_Int_Tables_Number  1
loop_
_symmetry_equiv_pos_site_id
_symmetry_equiv_pos_as_xyz
  1  x,y,z
loop_
 _atom_site_label
 _atom_site_occupancy
 _atom_site_fract_x
 _atom_site_fract_y
 _atom_site_fract_z
 _atom_site_thermal_displace_type
 _atom_site_B_iso_or_equiv
 _atom_site_type_symbol
Li1 1.0000000000 0.0000000000 0.0000000000 0.0000000000  Biso 1.0 Li
Li2 1.0000000000 0.5000000000 0.5000000000 0.0000000000  Biso 1.0 Li
Ru3 1.0000000000 0.7500000000 0.7500000000 0.0000000000  Biso 1.0 Ru
Ru4 1.0000000000 0.2500000000 0.2500000000 0.0000000000  Biso 1.0 Ru
Sn5 1.0000000000 0.4755343247 0.2980392213 0.5000000000  Biso 1.0 Sn
Sn6 1.0000000000 0.7980392213 0.9755343247 0.5000000000  Biso 1.0 Sn
Sn7 1.0000000000 0.9755343247 0.4755343247 0.1774951034  Biso 1.0 Sn
Sn8 1.0000000000 0.2980392213 0.7980392213 0.8225048966  Biso 1.0 Sn
Sn9 1.0000000000 0.0244656753 0.5244656753 0.8225048966  Biso 1.0 Sn
Sn10 1.0000000000 0.7019607787 0.2019607787 0.1774951034  Biso 1.0 Sn
Sn11 1.0000000000 0.5244656753 0.7019607787 0.5000000000  Biso 1.0 Sn
Sn12 1.0000000000 0.2019607787 0.0244656753 0.5000000000  Biso 1.0 Sn
