# AFLOW.org Repositories
# Li1Si2Y2   [TET,TET,tP10] (STD_PRIM doi:
data_Li1Si2Y2
_pd_phase_name Li1Si2Y2
_cell_length_a  7.1677997750
_cell_length_b  7.1677997750
_cell_length_c  4.1811950873
_cell_angle_alpha  90.0000000000
_cell_angle_beta  90.0000000000
_cell_angle_gamma  90.0000000000
_symmetry_space_group_name_H-M  'P1'
_symmetry_Int_Tables_Number  1
loop_
_symmetry_equiv_pos_site_id
_symmetry_equiv_pos_as_xyz
  1  x,y,z
loop_
 _atom_site_label
 _atom_site_occupancy
 _atom_site_fract_x
 _atom_site_fract_y
 _atom_site_fract_z
 _atom_site_thermal_displace_type
 _atom_site_B_iso_or_equiv
 _atom_site_type_symbol
Li1 1.0000000000 0.0000000000 0.0000000000 0.0000000000  Biso 1.0 Li
Li2 1.0000000000 0.5000000000 0.5000000000 0.0000000000  Biso 1.0 Li
Si3 1.0000000000 0.3819037677 0.8819037677 0.0000000000  Biso 1.0 Si
Si4 1.0000000000 0.6180962323 0.1180962323 0.0000000000  Biso 1.0 Si
Si5 1.0000000000 0.1180962323 0.3819037677 0.0000000000  Biso 1.0 Si
Si6 1.0000000000 0.8819037677 0.6180962323 0.0000000000  Biso 1.0 Si
Y7 1.0000000000 0.1790338552 0.6790338552 0.5000000000  Biso 1.0 Y
Y8 1.0000000000 0.8209661448 0.3209661448 0.5000000000  Biso 1.0 Y
Y9 1.0000000000 0.3209661448 0.1790338552 0.5000000000  Biso 1.0 Y
Y10 1.0000000000 0.6790338552 0.8209661448 0.5000000000  Biso 1.0 Y
