# AFLOW.org Repositories
# Li21Si5   [FCC,FCC,cF416] (STD_PRIM doi:
data_Li21Si5
_pd_phase_name Li21Si5
_cell_length_a  13.1176358468
_cell_length_b  13.1176358468
_cell_length_c  13.1176358468
_cell_angle_alpha  60.0000000000
_cell_angle_beta  60.0000000000
_cell_angle_gamma  60.0000000000
_symmetry_space_group_name_H-M  'P1'
_symmetry_Int_Tables_Number  1
loop_
_symmetry_equiv_pos_site_id
_symmetry_equiv_pos_as_xyz
  1  x,y,z
loop_
 _atom_site_label
 _atom_site_occupancy
 _atom_site_fract_x
 _atom_site_fract_y
 _atom_site_fract_z
 _atom_site_thermal_displace_type
 _atom_site_B_iso_or_equiv
 _atom_site_type_symbol
Li1 1.0000000000 0.9472728886 0.1581813342 0.9472728886  Biso 1.0 Li
Li2 1.0000000000 0.1581813342 0.9472728886 0.9472728886  Biso 1.0 Li
Li3 1.0000000000 0.9472728886 0.9472728886 0.1581813342  Biso 1.0 Li
Li4 1.0000000000 0.9472728886 0.9472728886 0.9472728886  Biso 1.0 Li
Li5 1.0000000000 0.8313551112 0.5059346665 0.8313551112  Biso 1.0 Li
Li6 1.0000000000 0.5059346665 0.8313551112 0.8313551112  Biso 1.0 Li
Li7 1.0000000000 0.8313551112 0.8313551112 0.5059346665  Biso 1.0 Li
Li8 1.0000000000 0.8313551112 0.8313551112 0.8313551112  Biso 1.0 Li
Li9 1.0000000000 0.6928739621 0.9213781138 0.6928739621  Biso 1.0 Li
Li10 1.0000000000 0.9213781138 0.6928739621 0.6928739621  Biso 1.0 Li
Li11 1.0000000000 0.6928739621 0.6928739621 0.9213781138  Biso 1.0 Li
Li12 1.0000000000 0.6928739621 0.6928739621 0.6928739621  Biso 1.0 Li
Li13 1.0000000000 0.5637884538 0.3086346385 0.5637884538  Biso 1.0 Li
Li14 1.0000000000 0.3086346385 0.5637884538 0.5637884538  Biso 1.0 Li
Li15 1.0000000000 0.5637884538 0.5637884538 0.3086346385  Biso 1.0 Li
Li16 1.0000000000 0.5637884538 0.5637884538 0.5637884538  Biso 1.0 Li
Li17 1.0000000000 0.4200703102 0.7397890694 0.4200703102  Biso 1.0 Li
Li18 1.0000000000 0.7397890694 0.4200703102 0.4200703102  Biso 1.0 Li
Li19 1.0000000000 0.4200703102 0.4200703102 0.7397890694  Biso 1.0 Li
Li20 1.0000000000 0.4200703102 0.4200703102 0.4200703102  Biso 1.0 Li
Li21 1.0000000000 0.1944538484 0.4166384547 0.1944538484  Biso 1.0 Li
Li22 1.0000000000 0.4166384547 0.1944538484 0.1944538484  Biso 1.0 Li
Li23 1.0000000000 0.1944538484 0.1944538484 0.4166384547  Biso 1.0 Li
Li24 1.0000000000 0.1944538484 0.1944538484 0.1944538484  Biso 1.0 Li
Li25 1.0000000000 0.8245334975 0.1754665025 0.8245334975  Biso 1.0 Li
Li26 1.0000000000 0.1754665025 0.8245334975 0.1754665025  Biso 1.0 Li
Li27 1.0000000000 0.8245334975 0.1754665025 0.1754665025  Biso 1.0 Li
Li28 1.0000000000 0.1754665025 0.8245334975 0.8245334975  Biso 1.0 Li
Li29 1.0000000000 0.1754665025 0.1754665025 0.8245334975  Biso 1.0 Li
Li30 1.0000000000 0.8245334975 0.8245334975 0.1754665025  Biso 1.0 Li
Li31 1.0000000000 0.4226611781 0.0773388219 0.4226611781  Biso 1.0 Li
Li32 1.0000000000 0.0773388219 0.4226611781 0.0773388219  Biso 1.0 Li
Li33 1.0000000000 0.4226611781 0.0773388219 0.0773388219  Biso 1.0 Li
Li34 1.0000000000 0.0773388219 0.4226611781 0.4226611781  Biso 1.0 Li
Li35 1.0000000000 0.0773388219 0.0773388219 0.4226611781  Biso 1.0 Li
Li36 1.0000000000 0.4226611781 0.4226611781 0.0773388219  Biso 1.0 Li
Li37 1.0000000000 0.3309517322 0.6952332934 0.9869074872  Biso 1.0 Li
Li38 1.0000000000 0.6952332934 0.3309517322 0.9869074872  Biso 1.0 Li
Li39 1.0000000000 0.9869074872 0.9869074872 0.6952332934  Biso 1.0 Li
Li40 1.0000000000 0.9869074872 0.9869074872 0.3309517322  Biso 1.0 Li
Li41 1.0000000000 0.9869074872 0.6952332934 0.9869074872  Biso 1.0 Li
Li42 1.0000000000 0.9869074872 0.3309517322 0.9869074872  Biso 1.0 Li
Li43 1.0000000000 0.6952332934 0.9869074872 0.3309517322  Biso 1.0 Li
Li44 1.0000000000 0.3309517322 0.9869074872 0.6952332934  Biso 1.0 Li
Li45 1.0000000000 0.9869074872 0.6952332934 0.3309517322  Biso 1.0 Li
Li46 1.0000000000 0.9869074872 0.3309517322 0.6952332934  Biso 1.0 Li
Li47 1.0000000000 0.3309517322 0.9869074872 0.9869074872  Biso 1.0 Li
Li48 1.0000000000 0.6952332934 0.9869074872 0.9869074872  Biso 1.0 Li
Li49 1.0000000000 0.1928591995 0.8305180764 0.4883113620  Biso 1.0 Li
Li50 1.0000000000 0.8305180764 0.1928591995 0.4883113620  Biso 1.0 Li
Li51 1.0000000000 0.4883113620 0.4883113620 0.8305180764  Biso 1.0 Li
Li52 1.0000000000 0.4883113620 0.4883113620 0.1928591995  Biso 1.0 Li
Li53 1.0000000000 0.4883113620 0.8305180764 0.4883113620  Biso 1.0 Li
Li54 1.0000000000 0.4883113620 0.1928591995 0.4883113620  Biso 1.0 Li
Li55 1.0000000000 0.8305180764 0.4883113620 0.1928591995  Biso 1.0 Li
Li56 1.0000000000 0.1928591995 0.4883113620 0.8305180764  Biso 1.0 Li
Li57 1.0000000000 0.4883113620 0.8305180764 0.1928591995  Biso 1.0 Li
Li58 1.0000000000 0.4883113620 0.1928591995 0.8305180764  Biso 1.0 Li
Li59 1.0000000000 0.1928591995 0.4883113620 0.4883113620  Biso 1.0 Li
Li60 1.0000000000 0.8305180764 0.4883113620 0.4883113620  Biso 1.0 Li
Li61 1.0000000000 0.0800119933 0.4606338820 0.7296770623  Biso 1.0 Li
Li62 1.0000000000 0.4606338820 0.0800119933 0.7296770623  Biso 1.0 Li
Li63 1.0000000000 0.7296770623 0.7296770623 0.4606338820  Biso 1.0 Li
Li64 1.0000000000 0.7296770623 0.7296770623 0.0800119933  Biso 1.0 Li
Li65 1.0000000000 0.7296770623 0.4606338820 0.7296770623  Biso 1.0 Li
Li66 1.0000000000 0.7296770623 0.0800119933 0.7296770623  Biso 1.0 Li
Li67 1.0000000000 0.4606338820 0.7296770623 0.0800119933  Biso 1.0 Li
Li68 1.0000000000 0.0800119933 0.7296770623 0.4606338820  Biso 1.0 Li
Li69 1.0000000000 0.7296770623 0.4606338820 0.0800119933  Biso 1.0 Li
Li70 1.0000000000 0.7296770623 0.0800119933 0.4606338820  Biso 1.0 Li
Li71 1.0000000000 0.0800119933 0.7296770623 0.7296770623  Biso 1.0 Li
Li72 1.0000000000 0.4606338820 0.7296770623 0.7296770623  Biso 1.0 Li
Li73 1.0000000000 0.5784272290 0.9355938386 0.2429894662  Biso 1.0 Li
Li74 1.0000000000 0.9355938386 0.5784272290 0.2429894662  Biso 1.0 Li
Li75 1.0000000000 0.2429894662 0.2429894662 0.9355938386  Biso 1.0 Li
Li76 1.0000000000 0.2429894662 0.2429894662 0.5784272290  Biso 1.0 Li
Li77 1.0000000000 0.2429894662 0.9355938386 0.2429894662  Biso 1.0 Li
Li78 1.0000000000 0.2429894662 0.5784272290 0.2429894662  Biso 1.0 Li
Li79 1.0000000000 0.9355938386 0.2429894662 0.5784272290  Biso 1.0 Li
Li80 1.0000000000 0.5784272290 0.2429894662 0.9355938386  Biso 1.0 Li
Li81 1.0000000000 0.2429894662 0.9355938386 0.5784272290  Biso 1.0 Li
Li82 1.0000000000 0.2429894662 0.5784272290 0.9355938386  Biso 1.0 Li
Li83 1.0000000000 0.5784272290 0.2429894662 0.2429894662  Biso 1.0 Li
Li84 1.0000000000 0.9355938386 0.2429894662 0.2429894662  Biso 1.0 Li
Si85 1.0000000000 0.0895300110 0.7314099669 0.0895300110  Biso 1.0 Si
Si86 1.0000000000 0.7314099669 0.0895300110 0.0895300110  Biso 1.0 Si
Si87 1.0000000000 0.0895300110 0.0895300110 0.7314099669  Biso 1.0 Si
Si88 1.0000000000 0.0895300110 0.0895300110 0.0895300110  Biso 1.0 Si
Si89 1.0000000000 0.3350848193 0.9947455422 0.3350848193  Biso 1.0 Si
Si90 1.0000000000 0.9947455422 0.3350848193 0.3350848193  Biso 1.0 Si
Si91 1.0000000000 0.3350848193 0.3350848193 0.9947455422  Biso 1.0 Si
Si92 1.0000000000 0.3350848193 0.3350848193 0.3350848193  Biso 1.0 Si
Si93 1.0000000000 0.6799559693 0.3200440307 0.6799559693  Biso 1.0 Si
Si94 1.0000000000 0.3200440307 0.6799559693 0.3200440307  Biso 1.0 Si
Si95 1.0000000000 0.6799559693 0.3200440307 0.3200440307  Biso 1.0 Si
Si96 1.0000000000 0.3200440307 0.6799559693 0.6799559693  Biso 1.0 Si
Si97 1.0000000000 0.3200440307 0.3200440307 0.6799559693  Biso 1.0 Si
Si98 1.0000000000 0.6799559693 0.6799559693 0.3200440307  Biso 1.0 Si
Si99 1.0000000000 0.9281037552 0.5718962448 0.9281037552  Biso 1.0 Si
Si100 1.0000000000 0.5718962448 0.9281037552 0.5718962448  Biso 1.0 Si
Si101 1.0000000000 0.9281037552 0.5718962448 0.5718962448  Biso 1.0 Si
Si102 1.0000000000 0.5718962448 0.9281037552 0.9281037552  Biso 1.0 Si
Si103 1.0000000000 0.5718962448 0.5718962448 0.9281037552  Biso 1.0 Si
Si104 1.0000000000 0.9281037552 0.9281037552 0.5718962448  Biso 1.0 Si
