# AFLOW.org Repositories
# Li4O4Pb1   [ORCC,ORCC,oS36] (STD_PRIM do
data_Li4O4Pb1
_pd_phase_name Li4O4Pb1
_cell_length_a  5.6021200560
_cell_length_b  5.6021200560
_cell_length_c  6.6326944734
_cell_angle_alpha  90.0000000000
_cell_angle_beta  90.0000000000
_cell_angle_gamma  98.1230299588
_symmetry_space_group_name_H-M  'P1'
_symmetry_Int_Tables_Number  1
loop_
_symmetry_equiv_pos_site_id
_symmetry_equiv_pos_as_xyz
  1  x,y,z
loop_
 _atom_site_label
 _atom_site_occupancy
 _atom_site_fract_x
 _atom_site_fract_y
 _atom_site_fract_z
 _atom_site_thermal_displace_type
 _atom_site_B_iso_or_equiv
 _atom_site_type_symbol
Li1 1.0000000000 0.8870305782 0.5942162766 0.2500000000  Biso 1.0 Li
Li2 1.0000000000 0.1129694218 0.4057837234 0.7500000000  Biso 1.0 Li
Li3 1.0000000000 0.5942162766 0.8870305782 0.2500000000  Biso 1.0 Li
Li4 1.0000000000 0.4057837234 0.1129694218 0.7500000000  Biso 1.0 Li
Li5 1.0000000000 0.1547147312 0.8452852688 0.0000000000  Biso 1.0 Li
Li6 1.0000000000 0.8452852688 0.1547147312 0.5000000000  Biso 1.0 Li
Li7 1.0000000000 0.8452852688 0.1547147312 0.0000000000  Biso 1.0 Li
Li8 1.0000000000 0.1547147312 0.8452852688 0.5000000000  Biso 1.0 Li
O9 1.0000000000 0.7947266560 0.7947266560 0.0209299799  Biso 1.0 O
O10 1.0000000000 0.2052733440 0.2052733440 0.5209299799  Biso 1.0 O
O11 1.0000000000 0.7947266560 0.7947266560 0.4790700201  Biso 1.0 O
O12 1.0000000000 0.2052733440 0.2052733440 0.9790700201  Biso 1.0 O
O13 1.0000000000 0.2586916963 0.7051112698 0.2500000000  Biso 1.0 O
O14 1.0000000000 0.7413083037 0.2948887302 0.7500000000  Biso 1.0 O
O15 1.0000000000 0.7051112698 0.2586916963 0.2500000000  Biso 1.0 O
O16 1.0000000000 0.2948887302 0.7413083037 0.7500000000  Biso 1.0 O
Pb17 1.0000000000 0.3541824099 0.3541824099 0.2500000000  Biso 1.0 Pb
Pb18 1.0000000000 0.6458175901 0.6458175901 0.7500000000  Biso 1.0 Pb
