# AFLOW.org Repositories
# Li9N1S3   [CUB,CUB,cP13] (STD_PRIM doi:1
data_Li9N1S3
_pd_phase_name Li9N1S3
_cell_length_a  5.5161967342
_cell_length_b  5.5161967342
_cell_length_c  5.5161967342
_cell_angle_alpha  90.0000000000
_cell_angle_beta  90.0000000000
_cell_angle_gamma  90.0000000000
_symmetry_space_group_name_H-M  'P1'
_symmetry_Int_Tables_Number  1
loop_
_symmetry_equiv_pos_site_id
_symmetry_equiv_pos_as_xyz
  1  x,y,z
loop_
 _atom_site_label
 _atom_site_occupancy
 _atom_site_fract_x
 _atom_site_fract_y
 _atom_site_fract_z
 _atom_site_thermal_displace_type
 _atom_site_B_iso_or_equiv
 _atom_site_type_symbol
Li1 1.0000000000 0.7825847004 0.7825847004 0.2174152996  Biso 1.0 Li
Li2 1.0000000000 0.2174152996 0.2174152996 0.2174152996  Biso 1.0 Li
Li3 1.0000000000 0.2174152996 0.7825847004 0.7825847004  Biso 1.0 Li
Li4 1.0000000000 0.7825847004 0.2174152996 0.7825847004  Biso 1.0 Li
Li5 1.0000000000 0.7825847004 0.7825847004 0.7825847004  Biso 1.0 Li
Li6 1.0000000000 0.2174152996 0.2174152996 0.7825847004  Biso 1.0 Li
Li7 1.0000000000 0.7825847004 0.2174152996 0.2174152996  Biso 1.0 Li
Li8 1.0000000000 0.2174152996 0.7825847004 0.2174152996  Biso 1.0 Li
Li9 1.0000000000 0.5000000000 0.5000000000 0.5000000000  Biso 1.0 Li
N10 1.0000000000 0.0000000000 0.0000000000 0.0000000000  Biso 1.0 N
S11 1.0000000000 0.0000000000 0.5000000000 0.5000000000  Biso 1.0 S
S12 1.0000000000 0.5000000000 0.0000000000 0.5000000000  Biso 1.0 S
S13 1.0000000000 0.5000000000 0.5000000000 0.0000000000  Biso 1.0 S
