# AFLOW.org Repositories
# Lu1Pb2   [BCT,BCT2,tI6] (STD_PRIM doi:10
data_Lu1Pb2
_pd_phase_name Lu1Pb2
_cell_length_a  6.5968454769
_cell_length_b  6.5968454769
_cell_length_c  6.5968454769
_cell_angle_alpha  146.4203815520
_cell_angle_beta  146.4203815520
_cell_angle_gamma  48.2227753987
_symmetry_space_group_name_H-M  'P1'
_symmetry_Int_Tables_Number  1
loop_
_symmetry_equiv_pos_site_id
_symmetry_equiv_pos_as_xyz
  1  x,y,z
loop_
 _atom_site_label
 _atom_site_occupancy
 _atom_site_fract_x
 _atom_site_fract_y
 _atom_site_fract_z
 _atom_site_thermal_displace_type
 _atom_site_B_iso_or_equiv
 _atom_site_type_symbol
Lu1 1.0000000000 0.0000000000 0.0000000000 0.0000000000  Biso 1.0 Lu
Pb2 1.0000000000 0.6568138361 0.6568138361 0.0000000000  Biso 1.0 Pb
Pb3 1.0000000000 0.3431861639 0.3431861639 0.0000000000  Biso 1.0 Pb
