# AFLOW.org Repositories
# Mg1O3Si1   [ORC,ORC,oP20] (STD_PRIM doi:
data_Mg1O3Si1
_pd_phase_name Mg1O3Si1
_cell_length_a  4.8297447285
_cell_length_b  4.9831428116
_cell_length_c  6.9774501162
_cell_angle_alpha  90.0000000000
_cell_angle_beta  90.0000000000
_cell_angle_gamma  90.0000000000
_symmetry_space_group_name_H-M  'P1'
_symmetry_Int_Tables_Number  1
loop_
_symmetry_equiv_pos_site_id
_symmetry_equiv_pos_as_xyz
  1  x,y,z
loop_
 _atom_site_label
 _atom_site_occupancy
 _atom_site_fract_x
 _atom_site_fract_y
 _atom_site_fract_z
 _atom_site_thermal_displace_type
 _atom_site_B_iso_or_equiv
 _atom_site_type_symbol
Mg1 1.0000000000 0.5153798742 0.5566242816 0.7500000000  Biso 1.0 Mg
Mg2 1.0000000000 0.0153798742 0.9433757184 0.2500000000  Biso 1.0 Mg
Mg3 1.0000000000 0.4846201258 0.4433757184 0.2500000000  Biso 1.0 Mg
Mg4 1.0000000000 0.9846201258 0.0566242816 0.7500000000  Biso 1.0 Mg
O5 1.0000000000 0.3962905964 0.9656626893 0.7500000000  Biso 1.0 O
O6 1.0000000000 0.8962905964 0.5343373107 0.2500000000  Biso 1.0 O
O7 1.0000000000 0.6037094036 0.0343373107 0.2500000000  Biso 1.0 O
O8 1.0000000000 0.1037094036 0.4656626893 0.7500000000  Biso 1.0 O
O9 1.0000000000 0.1969954861 0.2020991357 0.0536304342  Biso 1.0 O
O10 1.0000000000 0.6969954861 0.2979008643 0.9463695658  Biso 1.0 O
O11 1.0000000000 0.8030045139 0.7979008643 0.5536304342  Biso 1.0 O
O12 1.0000000000 0.3030045139 0.7020991357 0.4463695658  Biso 1.0 O
O13 1.0000000000 0.8030045139 0.7979008643 0.9463695658  Biso 1.0 O
O14 1.0000000000 0.3030045139 0.7020991357 0.0536304342  Biso 1.0 O
O15 1.0000000000 0.1969954861 0.2020991357 0.4463695658  Biso 1.0 O
O16 1.0000000000 0.6969954861 0.2979008643 0.5536304342  Biso 1.0 O
Si17 1.0000000000 0.5000000000 0.0000000000 0.0000000000  Biso 1.0 Si
Si18 1.0000000000 0.0000000000 0.5000000000 0.0000000000  Biso 1.0 Si
Si19 1.0000000000 0.5000000000 0.0000000000 0.5000000000  Biso 1.0 Si
Si20 1.0000000000 0.0000000000 0.5000000000 0.5000000000  Biso 1.0 Si
