# AFLOW.org Repositories
# Mg1O3V1   [ORCC,ORCC,oS20] (STD_PRIM doi
data_Mg1O3V1
_pd_phase_name Mg1O3V1
_cell_length_a  5.7840994881
_cell_length_b  5.7840994881
_cell_length_c  5.3028410078
_cell_angle_alpha  90.0000000000
_cell_angle_beta  90.0000000000
_cell_angle_gamma  125.1710461077
_symmetry_space_group_name_H-M  'P1'
_symmetry_Int_Tables_Number  1
loop_
_symmetry_equiv_pos_site_id
_symmetry_equiv_pos_as_xyz
  1  x,y,z
loop_
 _atom_site_label
 _atom_site_occupancy
 _atom_site_fract_x
 _atom_site_fract_y
 _atom_site_fract_z
 _atom_site_thermal_displace_type
 _atom_site_B_iso_or_equiv
 _atom_site_type_symbol
Mg1 1.0000000000 0.5749266082 0.4250733918 0.9882792438  Biso 1.0 Mg
Mg2 1.0000000000 0.4250733918 0.5749266082 0.4882792438  Biso 1.0 Mg
O3 1.0000000000 0.7612174079 0.7612174079 0.7380769305  Biso 1.0 O
O4 1.0000000000 0.2387825921 0.2387825921 0.2380769305  Biso 1.0 O
O5 1.0000000000 0.7612609807 0.7612609807 0.2380769305  Biso 1.0 O
O6 1.0000000000 0.2387390193 0.2387390193 0.7380769305  Biso 1.0 O
O7 1.0000000000 0.7654056880 0.2345943120 0.9839277748  Biso 1.0 O
O8 1.0000000000 0.2345943120 0.7654056880 0.4839277748  Biso 1.0 O
V9 1.0000000000 0.9295998367 0.0704001633 0.9876391204  Biso 1.0 V
V10 1.0000000000 0.0704001633 0.9295998367 0.4876391204  Biso 1.0 V
