# AFLOW.org Repositories
# Mg1Pd2Tb2   [TET,TET,tP10] (STD_PRIM doi
data_Mg1Pd2Tb2
_pd_phase_name Mg1Pd2Tb2
_cell_length_a  7.6482829296
_cell_length_b  7.6482829296
_cell_length_c  3.8287287115
_cell_angle_alpha  90.0000000000
_cell_angle_beta  90.0000000000
_cell_angle_gamma  90.0000000000
_symmetry_space_group_name_H-M  'P1'
_symmetry_Int_Tables_Number  1
loop_
_symmetry_equiv_pos_site_id
_symmetry_equiv_pos_as_xyz
  1  x,y,z
loop_
 _atom_site_label
 _atom_site_occupancy
 _atom_site_fract_x
 _atom_site_fract_y
 _atom_site_fract_z
 _atom_site_thermal_displace_type
 _atom_site_B_iso_or_equiv
 _atom_site_type_symbol
Mg1 1.0000000000 0.0000000000 0.0000000000 0.0000000000  Biso 1.0 Mg
Mg2 1.0000000000 0.5000000000 0.5000000000 0.0000000000  Biso 1.0 Mg
Pd3 1.0000000000 0.3676117780 0.8676117780 0.0000000000  Biso 1.0 Pd
Pd4 1.0000000000 0.6323882220 0.1323882220 0.0000000000  Biso 1.0 Pd
Pd5 1.0000000000 0.1323882220 0.3676117780 0.0000000000  Biso 1.0 Pd
Pd6 1.0000000000 0.8676117780 0.6323882220 0.0000000000  Biso 1.0 Pd
Tb7 1.0000000000 0.1694544887 0.6694544887 0.5000000000  Biso 1.0 Tb
Tb8 1.0000000000 0.8305455113 0.3305455113 0.5000000000  Biso 1.0 Tb
Tb9 1.0000000000 0.3305455113 0.1694544887 0.5000000000  Biso 1.0 Tb
Tb10 1.0000000000 0.6694544887 0.8305455113 0.5000000000  Biso 1.0 Tb
