# AFLOW.org Repositories
# Mg2O4Sn1   [FCC,FCC,cF56] (STD_PRIM doi:
data_Mg2O4Sn1
_pd_phase_name Mg2O4Sn1
_cell_length_a  6.1784249258
_cell_length_b  6.1784249258
_cell_length_c  6.1784249258
_cell_angle_alpha  60.0000000000
_cell_angle_beta  60.0000000000
_cell_angle_gamma  60.0000000000
_symmetry_space_group_name_H-M  'P1'
_symmetry_Int_Tables_Number  1
loop_
_symmetry_equiv_pos_site_id
_symmetry_equiv_pos_as_xyz
  1  x,y,z
loop_
 _atom_site_label
 _atom_site_occupancy
 _atom_site_fract_x
 _atom_site_fract_y
 _atom_site_fract_z
 _atom_site_thermal_displace_type
 _atom_site_B_iso_or_equiv
 _atom_site_type_symbol
Mg1 1.0000000000 0.5000000000 0.5000000000 0.5000000000  Biso 1.0 Mg
Mg2 1.0000000000 0.5000000000 0.0000000000 0.0000000000  Biso 1.0 Mg
Mg3 1.0000000000 0.5000000000 0.0000000000 0.5000000000  Biso 1.0 Mg
Mg4 1.0000000000 0.0000000000 0.0000000000 0.5000000000  Biso 1.0 Mg
O5 1.0000000000 0.7406631419 0.7780105742 0.7406631419  Biso 1.0 O
O6 1.0000000000 0.7406631419 0.2406631419 0.2780105742  Biso 1.0 O
O7 1.0000000000 0.7406631419 0.2406631419 0.7406631419  Biso 1.0 O
O8 1.0000000000 0.2780105742 0.2406631419 0.7406631419  Biso 1.0 O
O9 1.0000000000 0.2593368581 0.7593368581 0.7219894258  Biso 1.0 O
O10 1.0000000000 0.2593368581 0.2219894258 0.2593368581  Biso 1.0 O
O11 1.0000000000 0.2593368581 0.7593368581 0.2593368581  Biso 1.0 O
O12 1.0000000000 0.7219894258 0.7593368581 0.2593368581  Biso 1.0 O
Sn13 1.0000000000 0.8750000000 0.3750000000 0.8750000000  Biso 1.0 Sn
Sn14 1.0000000000 0.1250000000 0.6250000000 0.1250000000  Biso 1.0 Sn
