# AFLOW.org Repositories
# Mg2Pt1Si1   [HEX,HEX,hP8] (STD_PRIM doi:
data_Mg2Pt1Si1
_pd_phase_name Mg2Pt1Si1
_cell_length_a  4.2947495725
_cell_length_b  4.2947495725
_cell_length_c  8.5316894674
_cell_angle_alpha  90.0000000000
_cell_angle_beta  90.0000000000
_cell_angle_gamma  120.0000000000
_symmetry_space_group_name_H-M  'P1'
_symmetry_Int_Tables_Number  1
loop_
_symmetry_equiv_pos_site_id
_symmetry_equiv_pos_as_xyz
  1  x,y,z
loop_
 _atom_site_label
 _atom_site_occupancy
 _atom_site_fract_x
 _atom_site_fract_y
 _atom_site_fract_z
 _atom_site_thermal_displace_type
 _atom_site_B_iso_or_equiv
 _atom_site_type_symbol
Mg1 1.0000000000 0.6666647971 0.3333295942 0.5837162283  Biso 1.0 Mg
Mg2 1.0000000000 0.3333352029 0.6666704058 0.0837162283  Biso 1.0 Mg
Mg3 1.0000000000 0.3333352029 0.6666704058 0.4162837717  Biso 1.0 Mg
Mg4 1.0000000000 0.6666647971 0.3333295942 0.9162837717  Biso 1.0 Mg
Pt5 1.0000000000 0.6666731908 0.3333463816 0.2500000000  Biso 1.0 Pt
Pt6 1.0000000000 0.3333268092 0.6666536184 0.7500000000  Biso 1.0 Pt
Si7 1.0000000000 0.0000000000 0.0000000000 0.2500000000  Biso 1.0 Si
Si8 1.0000000000 0.0000000000 0.0000000000 0.7500000000  Biso 1.0 Si
