# AFLOW.org Repositories
# Mg2Sr1   [HEX,HEX,hP12] (STD_PRIM doi:10
data_Mg2Sr1
_pd_phase_name Mg2Sr1
_cell_length_a  6.4584832902
_cell_length_b  6.4584832902
_cell_length_c  10.3980996882
_cell_angle_alpha  90.0000000000
_cell_angle_beta  90.0000000000
_cell_angle_gamma  120.0000000000
_symmetry_space_group_name_H-M  'P1'
_symmetry_Int_Tables_Number  1
loop_
_symmetry_equiv_pos_site_id
_symmetry_equiv_pos_as_xyz
  1  x,y,z
loop_
 _atom_site_label
 _atom_site_occupancy
 _atom_site_fract_x
 _atom_site_fract_y
 _atom_site_fract_z
 _atom_site_thermal_displace_type
 _atom_site_B_iso_or_equiv
 _atom_site_type_symbol
Mg1 1.0000000000 0.0000000000 0.0000000000 0.0000000000  Biso 1.0 Mg
Mg2 1.0000000000 0.0000000000 0.0000000000 0.5000000000  Biso 1.0 Mg
Mg3 1.0000000000 0.6664209194 0.8332129198 0.2500000000  Biso 1.0 Mg
Mg4 1.0000000000 0.1667920004 0.8332129198 0.2500000000  Biso 1.0 Mg
Mg5 1.0000000000 0.1667897080 0.3335794160 0.2500000000  Biso 1.0 Mg
Mg6 1.0000000000 0.3335790806 0.1667870802 0.7500000000  Biso 1.0 Mg
Mg7 1.0000000000 0.8332079996 0.1667870802 0.7500000000  Biso 1.0 Mg
Mg8 1.0000000000 0.8332102920 0.6664205840 0.7500000000  Biso 1.0 Mg
Sr9 1.0000000000 0.6666928706 0.3333857413 0.0606661480  Biso 1.0 Sr
Sr10 1.0000000000 0.3333071294 0.6666142587 0.5606661480  Biso 1.0 Sr
Sr11 1.0000000000 0.3333071294 0.6666142587 0.9393338520  Biso 1.0 Sr
Sr12 1.0000000000 0.6666928706 0.3333857413 0.4393338520  Biso 1.0 Sr
