# AFLOW.org Repositories
# Mg3Ni20P6   [FCC,FCC,cF116] (STD_PRIM do
data_Mg3Ni20P6
_pd_phase_name Mg3Ni20P6
_cell_length_a  7.7764701601
_cell_length_b  7.7764701601
_cell_length_c  7.7764701601
_cell_angle_alpha  60.0000000000
_cell_angle_beta  60.0000000000
_cell_angle_gamma  60.0000000000
_symmetry_space_group_name_H-M  'P1'
_symmetry_Int_Tables_Number  1
loop_
_symmetry_equiv_pos_site_id
_symmetry_equiv_pos_as_xyz
  1  x,y,z
loop_
 _atom_site_label
 _atom_site_occupancy
 _atom_site_fract_x
 _atom_site_fract_y
 _atom_site_fract_z
 _atom_site_thermal_displace_type
 _atom_site_B_iso_or_equiv
 _atom_site_type_symbol
Mg1 1.0000000000 0.0000000000 0.0000000000 0.0000000000  Biso 1.0 Mg
Mg2 1.0000000000 0.2500000000 0.2500000000 0.2500000000  Biso 1.0 Mg
Mg3 1.0000000000 0.7500000000 0.7500000000 0.7500000000  Biso 1.0 Mg
Ni4 1.0000000000 0.8469375148 0.3843541617 0.3843541617  Biso 1.0 Ni
Ni5 1.0000000000 0.3843541617 0.3843541617 0.3843541617  Biso 1.0 Ni
Ni6 1.0000000000 0.3843541617 0.8469375148 0.3843541617  Biso 1.0 Ni
Ni7 1.0000000000 0.3843541617 0.3843541617 0.8469375148  Biso 1.0 Ni
Ni8 1.0000000000 0.6156458383 0.6156458383 0.6156458383  Biso 1.0 Ni
Ni9 1.0000000000 0.1530624852 0.6156458383 0.6156458383  Biso 1.0 Ni
Ni10 1.0000000000 0.6156458383 0.1530624852 0.6156458383  Biso 1.0 Ni
Ni11 1.0000000000 0.6156458383 0.6156458383 0.1530624852  Biso 1.0 Ni
Ni12 1.0000000000 0.6511261180 0.0000000000 0.3488738820  Biso 1.0 Ni
Ni13 1.0000000000 0.0000000000 0.3488738820 0.0000000000  Biso 1.0 Ni
Ni14 1.0000000000 0.0000000000 0.6511261180 0.0000000000  Biso 1.0 Ni
Ni15 1.0000000000 0.3488738820 0.0000000000 0.6511261180  Biso 1.0 Ni
Ni16 1.0000000000 0.6511261180 0.3488738820 0.0000000000  Biso 1.0 Ni
Ni17 1.0000000000 0.0000000000 0.0000000000 0.6511261180  Biso 1.0 Ni
Ni18 1.0000000000 0.0000000000 0.0000000000 0.3488738820  Biso 1.0 Ni
Ni19 1.0000000000 0.3488738820 0.6511261180 0.0000000000  Biso 1.0 Ni
Ni20 1.0000000000 0.6511261180 0.0000000000 0.0000000000  Biso 1.0 Ni
Ni21 1.0000000000 0.0000000000 0.6511261180 0.3488738820  Biso 1.0 Ni
Ni22 1.0000000000 0.0000000000 0.3488738820 0.6511261180  Biso 1.0 Ni
Ni23 1.0000000000 0.3488738820 0.0000000000 0.0000000000  Biso 1.0 Ni
P24 1.0000000000 0.7355184896 0.2644815104 0.7355184896  Biso 1.0 P
P25 1.0000000000 0.2644815104 0.7355184896 0.2644815104  Biso 1.0 P
P26 1.0000000000 0.7355184896 0.7355184896 0.2644815104  Biso 1.0 P
P27 1.0000000000 0.2644815104 0.2644815104 0.7355184896  Biso 1.0 P
P28 1.0000000000 0.7355184896 0.2644815104 0.2644815104  Biso 1.0 P
P29 1.0000000000 0.2644815104 0.7355184896 0.7355184896  Biso 1.0 P
