# AFLOW.org Repositories
# Mg3Nb6O11   [HEX,HEX,hP20] (STD_PRIM doi
data_Mg3Nb6O11
_pd_phase_name Mg3Nb6O11
_cell_length_a  6.1017815024
_cell_length_b  6.1017815024
_cell_length_c  7.5425422914
_cell_angle_alpha  90.0000000000
_cell_angle_beta  90.0000000000
_cell_angle_gamma  120.0000000000
_symmetry_space_group_name_H-M  'P1'
_symmetry_Int_Tables_Number  1
loop_
_symmetry_equiv_pos_site_id
_symmetry_equiv_pos_as_xyz
  1  x,y,z
loop_
 _atom_site_label
 _atom_site_occupancy
 _atom_site_fract_x
 _atom_site_fract_y
 _atom_site_fract_z
 _atom_site_thermal_displace_type
 _atom_site_B_iso_or_equiv
 _atom_site_type_symbol
Mg1 1.0000000000 0.0000000000 0.0000000000 0.5000000000  Biso 1.0 Mg
Mg2 1.0000000000 0.3333183379 0.6666366759 0.4238911549  Biso 1.0 Mg
Mg3 1.0000000000 0.6666816621 0.3333633241 0.5761088451  Biso 1.0 Mg
Nb4 1.0000000000 0.8453927215 0.6907854429 0.1529275500  Biso 1.0 Nb
Nb5 1.0000000000 0.3092257804 0.1546113479 0.1529292435  Biso 1.0 Nb
Nb6 1.0000000000 0.8453855675 0.1546113479 0.1529292435  Biso 1.0 Nb
Nb7 1.0000000000 0.1546072785 0.3092145571 0.8470724500  Biso 1.0 Nb
Nb8 1.0000000000 0.1546144325 0.8453886521 0.8470707565  Biso 1.0 Nb
Nb9 1.0000000000 0.6907742196 0.8453886521 0.8470707565  Biso 1.0 Nb
O10 1.0000000000 0.5000000000 0.0000000000 0.0000000000  Biso 1.0 O
O11 1.0000000000 0.0000000000 0.5000000000 0.0000000000  Biso 1.0 O
O12 1.0000000000 0.5000000000 0.5000000000 0.0000000000  Biso 1.0 O
O13 1.0000000000 0.1560995583 0.3121991165 0.3265539715  Biso 1.0 O
O14 1.0000000000 0.6877847774 0.8438946247 0.3265547991  Biso 1.0 O
O15 1.0000000000 0.1561098472 0.8438946247 0.3265547991  Biso 1.0 O
O16 1.0000000000 0.8439004417 0.6878008835 0.6734460285  Biso 1.0 O
O17 1.0000000000 0.8438901528 0.1561053753 0.6734452009  Biso 1.0 O
O18 1.0000000000 0.3122152226 0.1561053753 0.6734452009  Biso 1.0 O
O19 1.0000000000 0.6666872140 0.3333744280 0.3119062945  Biso 1.0 O
O20 1.0000000000 0.3333127860 0.6666255720 0.6880937055  Biso 1.0 O
