# AFLOW.org Repositories
# Mg5Pd10Si16   [FCC,FCC,cF124] (STD_PRIM 
data_Mg5Pd10Si16
_pd_phase_name Mg5Pd10Si16
_cell_length_a  8.9255698208
_cell_length_b  8.9255698208
_cell_length_c  8.9255698208
_cell_angle_alpha  60.0000000000
_cell_angle_beta  60.0000000000
_cell_angle_gamma  60.0000000000
_symmetry_space_group_name_H-M  'P1'
_symmetry_Int_Tables_Number  1
loop_
_symmetry_equiv_pos_site_id
_symmetry_equiv_pos_as_xyz
  1  x,y,z
loop_
 _atom_site_label
 _atom_site_occupancy
 _atom_site_fract_x
 _atom_site_fract_y
 _atom_site_fract_z
 _atom_site_thermal_displace_type
 _atom_site_B_iso_or_equiv
 _atom_site_type_symbol
Mg1 1.0000000000 0.6518644669 0.0444065994 0.6518644669  Biso 1.0 Mg
Mg2 1.0000000000 0.0444065994 0.6518644669 0.6518644669  Biso 1.0 Mg
Mg3 1.0000000000 0.6518644669 0.6518644669 0.0444065994  Biso 1.0 Mg
Mg4 1.0000000000 0.6518644669 0.6518644669 0.6518644669  Biso 1.0 Mg
Mg5 1.0000000000 0.0000000000 0.0000000000 0.0000000000  Biso 1.0 Mg
Pd6 1.0000000000 0.8715618387 0.3853144840 0.8715618387  Biso 1.0 Pd
Pd7 1.0000000000 0.3853144840 0.8715618387 0.8715618387  Biso 1.0 Pd
Pd8 1.0000000000 0.8715618387 0.8715618387 0.3853144840  Biso 1.0 Pd
Pd9 1.0000000000 0.8715618387 0.8715618387 0.8715618387  Biso 1.0 Pd
Pd10 1.0000000000 0.7367391248 0.2632608752 0.7367391248  Biso 1.0 Pd
Pd11 1.0000000000 0.2632608752 0.7367391248 0.2632608752  Biso 1.0 Pd
Pd12 1.0000000000 0.7367391248 0.2632608752 0.2632608752  Biso 1.0 Pd
Pd13 1.0000000000 0.2632608752 0.7367391248 0.7367391248  Biso 1.0 Pd
Pd14 1.0000000000 0.2632608752 0.2632608752 0.7367391248  Biso 1.0 Pd
Pd15 1.0000000000 0.7367391248 0.7367391248 0.2632608752  Biso 1.0 Pd
Si16 1.0000000000 0.5868675726 0.3227007380 0.0452158447  Biso 1.0 Si
Si17 1.0000000000 0.3227007380 0.5868675726 0.0452158447  Biso 1.0 Si
Si18 1.0000000000 0.0452158447 0.0452158447 0.3227007380  Biso 1.0 Si
Si19 1.0000000000 0.0452158447 0.0452158447 0.5868675726  Biso 1.0 Si
Si20 1.0000000000 0.0452158447 0.3227007380 0.0452158447  Biso 1.0 Si
Si21 1.0000000000 0.0452158447 0.5868675726 0.0452158447  Biso 1.0 Si
Si22 1.0000000000 0.3227007380 0.0452158447 0.5868675726  Biso 1.0 Si
Si23 1.0000000000 0.5868675726 0.0452158447 0.3227007380  Biso 1.0 Si
Si24 1.0000000000 0.0452158447 0.3227007380 0.5868675726  Biso 1.0 Si
Si25 1.0000000000 0.0452158447 0.5868675726 0.3227007380  Biso 1.0 Si
Si26 1.0000000000 0.5868675726 0.0452158447 0.0452158447  Biso 1.0 Si
Si27 1.0000000000 0.3227007380 0.0452158447 0.0452158447  Biso 1.0 Si
Si28 1.0000000000 0.4274963468 0.7175109596 0.4274963468  Biso 1.0 Si
Si29 1.0000000000 0.7175109596 0.4274963468 0.4274963468  Biso 1.0 Si
Si30 1.0000000000 0.4274963468 0.4274963468 0.7175109596  Biso 1.0 Si
Si31 1.0000000000 0.4274963468 0.4274963468 0.4274963468  Biso 1.0 Si
