# AFLOW.org Repositories
# Mg5Pt10Si16   [FCC,FCC,cF124] (STD_PRIM 
data_Mg5Pt10Si16
_pd_phase_name Mg5Pt10Si16
_cell_length_a  8.9399995997
_cell_length_b  8.9399995997
_cell_length_c  8.9399995997
_cell_angle_alpha  60.0000000000
_cell_angle_beta  60.0000000000
_cell_angle_gamma  60.0000000000
_symmetry_space_group_name_H-M  'P1'
_symmetry_Int_Tables_Number  1
loop_
_symmetry_equiv_pos_site_id
_symmetry_equiv_pos_as_xyz
  1  x,y,z
loop_
 _atom_site_label
 _atom_site_occupancy
 _atom_site_fract_x
 _atom_site_fract_y
 _atom_site_fract_z
 _atom_site_thermal_displace_type
 _atom_site_B_iso_or_equiv
 _atom_site_type_symbol
Mg1 1.0000000000 0.6554471717 0.6554471717 0.6554471717  Biso 1.0 Mg
Mg2 1.0000000000 0.0336584850 0.6554471717 0.6554471717  Biso 1.0 Mg
Mg3 1.0000000000 0.6554471717 0.0336584850 0.6554471717  Biso 1.0 Mg
Mg4 1.0000000000 0.6554471717 0.6554471717 0.0336584850  Biso 1.0 Mg
Mg5 1.0000000000 0.0000000000 0.0000000000 0.0000000000  Biso 1.0 Mg
Pt6 1.0000000000 0.8730704635 0.8730704635 0.8730704635  Biso 1.0 Pt
Pt7 1.0000000000 0.3807886095 0.8730704635 0.8730704635  Biso 1.0 Pt
Pt8 1.0000000000 0.8730704635 0.3807886095 0.8730704635  Biso 1.0 Pt
Pt9 1.0000000000 0.8730704635 0.8730704635 0.3807886095  Biso 1.0 Pt
Pt10 1.0000000000 0.7320598266 0.7320598266 0.2679401734  Biso 1.0 Pt
Pt11 1.0000000000 0.2679401734 0.2679401734 0.7320598266  Biso 1.0 Pt
Pt12 1.0000000000 0.7320598266 0.2679401734 0.7320598266  Biso 1.0 Pt
Pt13 1.0000000000 0.2679401734 0.7320598266 0.2679401734  Biso 1.0 Pt
Pt14 1.0000000000 0.2679401734 0.7320598266 0.7320598266  Biso 1.0 Pt
Pt15 1.0000000000 0.7320598266 0.2679401734 0.2679401734  Biso 1.0 Pt
Si16 1.0000000000 0.5890071171 0.0440125865 0.0440125865  Biso 1.0 Si
Si17 1.0000000000 0.3229677098 0.0440125865 0.0440125865  Biso 1.0 Si
Si18 1.0000000000 0.0440125865 0.3229677098 0.5890071171  Biso 1.0 Si
Si19 1.0000000000 0.0440125865 0.5890071171 0.3229677098  Biso 1.0 Si
Si20 1.0000000000 0.0440125865 0.0440125865 0.5890071171  Biso 1.0 Si
Si21 1.0000000000 0.0440125865 0.0440125865 0.3229677098  Biso 1.0 Si
Si22 1.0000000000 0.3229677098 0.5890071171 0.0440125865  Biso 1.0 Si
Si23 1.0000000000 0.5890071171 0.3229677098 0.0440125865  Biso 1.0 Si
Si24 1.0000000000 0.0440125865 0.5890071171 0.0440125865  Biso 1.0 Si
Si25 1.0000000000 0.0440125865 0.3229677098 0.0440125865  Biso 1.0 Si
Si26 1.0000000000 0.5890071171 0.0440125865 0.3229677098  Biso 1.0 Si
Si27 1.0000000000 0.3229677098 0.0440125865 0.5890071171  Biso 1.0 Si
Si28 1.0000000000 0.4271495445 0.4271495445 0.4271495445  Biso 1.0 Si
Si29 1.0000000000 0.7185513664 0.4271495445 0.4271495445  Biso 1.0 Si
Si30 1.0000000000 0.4271495445 0.7185513664 0.4271495445  Biso 1.0 Si
Si31 1.0000000000 0.4271495445 0.4271495445 0.7185513664  Biso 1.0 Si
