# AFLOW.org Repositories
# Mg6Ni16Si7   [FCC,FCC,cF116] (STD_PRIM d
data_Mg6Ni16Si7
_pd_phase_name Mg6Ni16Si7
_cell_length_a  7.9351208875
_cell_length_b  7.9351208875
_cell_length_c  7.9351208875
_cell_angle_alpha  60.0000000000
_cell_angle_beta  60.0000000000
_cell_angle_gamma  60.0000000000
_symmetry_space_group_name_H-M  'P1'
_symmetry_Int_Tables_Number  1
loop_
_symmetry_equiv_pos_site_id
_symmetry_equiv_pos_as_xyz
  1  x,y,z
loop_
 _atom_site_label
 _atom_site_occupancy
 _atom_site_fract_x
 _atom_site_fract_y
 _atom_site_fract_z
 _atom_site_thermal_displace_type
 _atom_site_B_iso_or_equiv
 _atom_site_type_symbol
Mg1 1.0000000000 0.2058686392 0.7941313608 0.7941313608  Biso 1.0 Mg
Mg2 1.0000000000 0.7941313608 0.2058686392 0.2058686392  Biso 1.0 Mg
Mg3 1.0000000000 0.2058686392 0.2058686392 0.7941313608  Biso 1.0 Mg
Mg4 1.0000000000 0.7941313608 0.7941313608 0.2058686392  Biso 1.0 Mg
Mg5 1.0000000000 0.2058686392 0.7941313608 0.2058686392  Biso 1.0 Mg
Mg6 1.0000000000 0.7941313608 0.2058686392 0.7941313608  Biso 1.0 Mg
Ni7 1.0000000000 0.5005524054 0.8331491982 0.8331491982  Biso 1.0 Ni
Ni8 1.0000000000 0.8331491982 0.8331491982 0.5005524054  Biso 1.0 Ni
Ni9 1.0000000000 0.8331491982 0.5005524054 0.8331491982  Biso 1.0 Ni
Ni10 1.0000000000 0.8331491982 0.8331491982 0.8331491982  Biso 1.0 Ni
Ni11 1.0000000000 0.1668508018 0.1668508018 0.4994475946  Biso 1.0 Ni
Ni12 1.0000000000 0.4994475946 0.1668508018 0.1668508018  Biso 1.0 Ni
Ni13 1.0000000000 0.1668508018 0.4994475946 0.1668508018  Biso 1.0 Ni
Ni14 1.0000000000 0.1668508018 0.1668508018 0.1668508018  Biso 1.0 Ni
Ni15 1.0000000000 0.1464772316 0.6178409228 0.6178409228  Biso 1.0 Ni
Ni16 1.0000000000 0.6178409228 0.6178409228 0.1464772316  Biso 1.0 Ni
Ni17 1.0000000000 0.6178409228 0.1464772316 0.6178409228  Biso 1.0 Ni
Ni18 1.0000000000 0.6178409228 0.6178409228 0.6178409228  Biso 1.0 Ni
Ni19 1.0000000000 0.3821590772 0.3821590772 0.8535227684  Biso 1.0 Ni
Ni20 1.0000000000 0.8535227684 0.3821590772 0.3821590772  Biso 1.0 Ni
Ni21 1.0000000000 0.3821590772 0.8535227684 0.3821590772  Biso 1.0 Ni
Ni22 1.0000000000 0.3821590772 0.3821590772 0.3821590772  Biso 1.0 Ni
Si23 1.0000000000 0.5000000000 0.0000000000 0.0000000000  Biso 1.0 Si
Si24 1.0000000000 0.0000000000 0.5000000000 0.5000000000  Biso 1.0 Si
Si25 1.0000000000 0.5000000000 0.5000000000 0.0000000000  Biso 1.0 Si
Si26 1.0000000000 0.0000000000 0.0000000000 0.5000000000  Biso 1.0 Si
Si27 1.0000000000 0.5000000000 0.0000000000 0.5000000000  Biso 1.0 Si
Si28 1.0000000000 0.0000000000 0.5000000000 0.0000000000  Biso 1.0 Si
Si29 1.0000000000 0.5000000000 0.5000000000 0.5000000000  Biso 1.0 Si
