# AFLOW.org Repositories
# Mn1Ni6O8   [FCC,FCC,cF60] (STD_PRIM doi:
data_Mn1Ni6O8
_pd_phase_name Mn1Ni6O8
_cell_length_a  5.9593638747
_cell_length_b  5.9593638747
_cell_length_c  5.9593638747
_cell_angle_alpha  60.0000000000
_cell_angle_beta  60.0000000000
_cell_angle_gamma  60.0000000000
_symmetry_space_group_name_H-M  'P1'
_symmetry_Int_Tables_Number  1
loop_
_symmetry_equiv_pos_site_id
_symmetry_equiv_pos_as_xyz
  1  x,y,z
loop_
 _atom_site_label
 _atom_site_occupancy
 _atom_site_fract_x
 _atom_site_fract_y
 _atom_site_fract_z
 _atom_site_thermal_displace_type
 _atom_site_B_iso_or_equiv
 _atom_site_type_symbol
Mn1 1.0000000000 0.0000000000 0.0000000000 0.0000000000  Biso 1.0 Mn
Ni2 1.0000000000 0.5000000000 0.0000000000 0.5000000000  Biso 1.0 Ni
Ni3 1.0000000000 0.0000000000 0.5000000000 0.0000000000  Biso 1.0 Ni
Ni4 1.0000000000 0.0000000000 0.5000000000 0.5000000000  Biso 1.0 Ni
Ni5 1.0000000000 0.5000000000 0.0000000000 0.0000000000  Biso 1.0 Ni
Ni6 1.0000000000 0.0000000000 0.0000000000 0.5000000000  Biso 1.0 Ni
Ni7 1.0000000000 0.5000000000 0.5000000000 0.0000000000  Biso 1.0 Ni
O8 1.0000000000 0.7500000000 0.7500000000 0.7500000000  Biso 1.0 O
O9 1.0000000000 0.2500000000 0.2500000000 0.2500000000  Biso 1.0 O
O10 1.0000000000 0.2291329966 0.7708670034 0.2291329966  Biso 1.0 O
O11 1.0000000000 0.7708670034 0.2291329966 0.7708670034  Biso 1.0 O
O12 1.0000000000 0.7708670034 0.2291329966 0.2291329966  Biso 1.0 O
O13 1.0000000000 0.2291329966 0.7708670034 0.7708670034  Biso 1.0 O
O14 1.0000000000 0.7708670034 0.7708670034 0.2291329966  Biso 1.0 O
O15 1.0000000000 0.2291329966 0.2291329966 0.7708670034  Biso 1.0 O
