# AFLOW.org Repositories
# Mn1Nb3S6   [HEX,HEX,hP20] (STD_PRIM doi:
data_Mn1Nb3S6
_pd_phase_name Mn1Nb3S6
_cell_length_a  5.8411910346
_cell_length_b  5.8411910346
_cell_length_c  12.9454466043
_cell_angle_alpha  90.0000000000
_cell_angle_beta  90.0000000000
_cell_angle_gamma  120.0000000000
_symmetry_space_group_name_H-M  'P1'
_symmetry_Int_Tables_Number  1
loop_
_symmetry_equiv_pos_site_id
_symmetry_equiv_pos_as_xyz
  1  x,y,z
loop_
 _atom_site_label
 _atom_site_occupancy
 _atom_site_fract_x
 _atom_site_fract_y
 _atom_site_fract_z
 _atom_site_thermal_displace_type
 _atom_site_B_iso_or_equiv
 _atom_site_type_symbol
Mn1 1.0000000000 0.6666734147 0.3333477945 0.2499985201  Biso 1.0 Mn
Mn2 1.0000000000 0.3333256202 0.6666522055 0.7500014799  Biso 1.0 Mn
Nb3 1.0000000000 0.0000000000 0.0000000000 0.0000000000  Biso 1.0 Nb
Nb4 1.0000000000 0.0000000000 0.0000000000 0.5000000000  Biso 1.0 Nb
Nb5 1.0000000000 0.6666660599 0.3333332627 0.5007412875  Biso 1.0 Nb
Nb6 1.0000000000 0.3333350043 0.6666686200 0.0000000000  Biso 1.0 Nb
Nb7 1.0000000000 0.3333327973 0.6666667373 0.4992587125  Biso 1.0 Nb
Nb8 1.0000000000 0.6666663843 0.3333313800 0.0000000000  Biso 1.0 Nb
S9 1.0000000000 0.0030714731 0.6699931387 0.1211631085  Biso 1.0 S
S10 1.0000000000 0.3300098529 0.3330799592 0.1211635677  Biso 1.0 S
S11 1.0000000000 0.6669177767 0.9969317795 0.1211628518  Biso 1.0 S
S12 1.0000000000 0.9969864401 0.3300516498 0.6211731710  Biso 1.0 S
S13 1.0000000000 0.6699447077 0.6669343611 0.6211735118  Biso 1.0 S
S14 1.0000000000 0.3330700785 0.0030089122 0.6211718703  Biso 1.0 S
S15 1.0000000000 0.3330783343 0.3300068613 0.8788368915  Biso 1.0 S
S16 1.0000000000 0.9969298937 0.6669200408 0.8788364323  Biso 1.0 S
S17 1.0000000000 0.6699859971 0.0030682205 0.8788371482  Biso 1.0 S
S18 1.0000000000 0.6669347903 0.6699483502 0.3788268290  Biso 1.0 S
S19 1.0000000000 0.0030103465 0.3330656389 0.3788264882  Biso 1.0 S
S20 1.0000000000 0.3300611663 0.9969910878 0.3788281297  Biso 1.0 S
