# AFLOW.org Repositories
# Mn1Pd2   [ORC,ORC,oP12] (STD_PRIM doi:10
data_Mn1Pd2
_pd_phase_name Mn1Pd2
_cell_length_a  4.1709761185
_cell_length_b  5.5144972963
_cell_length_c  8.1844456749
_cell_angle_alpha  90.0000000000
_cell_angle_beta  90.0000000000
_cell_angle_gamma  90.0000000000
_symmetry_space_group_name_H-M  'P1'
_symmetry_Int_Tables_Number  1
loop_
_symmetry_equiv_pos_site_id
_symmetry_equiv_pos_as_xyz
  1  x,y,z
loop_
 _atom_site_label
 _atom_site_occupancy
 _atom_site_fract_x
 _atom_site_fract_y
 _atom_site_fract_z
 _atom_site_thermal_displace_type
 _atom_site_B_iso_or_equiv
 _atom_site_type_symbol
Mn1 1.0000000000 0.2500000000 0.1651390228 0.9022772569  Biso 1.0 Mn
Mn2 1.0000000000 0.7500000000 0.3348609772 0.4022772569  Biso 1.0 Mn
Mn3 1.0000000000 0.7500000000 0.8348609772 0.0977227431  Biso 1.0 Mn
Mn4 1.0000000000 0.2500000000 0.6651390228 0.5977227431  Biso 1.0 Mn
Pd5 1.0000000000 0.2500000000 0.1567531461 0.5731048501  Biso 1.0 Pd
Pd6 1.0000000000 0.7500000000 0.3432468539 0.0731048501  Biso 1.0 Pd
Pd7 1.0000000000 0.7500000000 0.8432468539 0.4268951499  Biso 1.0 Pd
Pd8 1.0000000000 0.2500000000 0.6567531461 0.9268951499  Biso 1.0 Pd
Pd9 1.0000000000 0.2500000000 0.0725319871 0.2347787529  Biso 1.0 Pd
Pd10 1.0000000000 0.7500000000 0.4274680129 0.7347787529  Biso 1.0 Pd
Pd11 1.0000000000 0.7500000000 0.9274680129 0.7652212471  Biso 1.0 Pd
Pd12 1.0000000000 0.2500000000 0.5725319871 0.2652212471  Biso 1.0 Pd
