# AFLOW.org Repositories
# Mn1P1Zr1   [ORC,ORC,oP12] (STD_PRIM doi:
data_Mn1P1Zr1
_pd_phase_name Mn1P1Zr1
_cell_length_a  3.7161138682
_cell_length_b  6.6442662697
_cell_length_c  8.0366018181
_cell_angle_alpha  90.0000000000
_cell_angle_beta  90.0000000000
_cell_angle_gamma  90.0000000000
_symmetry_space_group_name_H-M  'P1'
_symmetry_Int_Tables_Number  1
loop_
_symmetry_equiv_pos_site_id
_symmetry_equiv_pos_as_xyz
  1  x,y,z
loop_
 _atom_site_label
 _atom_site_occupancy
 _atom_site_fract_x
 _atom_site_fract_y
 _atom_site_fract_z
 _atom_site_thermal_displace_type
 _atom_site_B_iso_or_equiv
 _atom_site_type_symbol
Mn1 1.0000000000 0.2500000000 0.1365718317 0.4419030230  Biso 1.0 Mn
Mn2 1.0000000000 0.7500000000 0.3634281683 0.9419030230  Biso 1.0 Mn
Mn3 1.0000000000 0.7500000000 0.8634281683 0.5580969770  Biso 1.0 Mn
Mn4 1.0000000000 0.2500000000 0.6365718317 0.0580969770  Biso 1.0 Mn
P5 1.0000000000 0.2500000000 0.7584405505 0.3606991689  Biso 1.0 P
P6 1.0000000000 0.7500000000 0.7415594495 0.8606991689  Biso 1.0 P
P7 1.0000000000 0.7500000000 0.2415594495 0.6393008311  Biso 1.0 P
P8 1.0000000000 0.2500000000 0.2584405505 0.1393008311  Biso 1.0 P
Zr9 1.0000000000 0.2500000000 0.0359807959 0.8317731936  Biso 1.0 Zr
Zr10 1.0000000000 0.7500000000 0.4640192041 0.3317731936  Biso 1.0 Zr
Zr11 1.0000000000 0.7500000000 0.9640192041 0.1682268064  Biso 1.0 Zr
Zr12 1.0000000000 0.2500000000 0.5359807959 0.6682268064  Biso 1.0 Zr
