# AFLOW.org Repositories
# Mn1Sn2   [BCT,BCT1,tI12] (STD_PRIM doi:1
data_Mn1Sn2
_pd_phase_name Mn1Sn2
_cell_length_a  5.4236506983
_cell_length_b  5.4236506983
_cell_length_c  5.4236506983
_cell_angle_alpha  104.2272031503
_cell_angle_beta  104.2272031503
_cell_angle_gamma  120.5616200695
_symmetry_space_group_name_H-M  'P1'
_symmetry_Int_Tables_Number  1
loop_
_symmetry_equiv_pos_site_id
_symmetry_equiv_pos_as_xyz
  1  x,y,z
loop_
 _atom_site_label
 _atom_site_occupancy
 _atom_site_fract_x
 _atom_site_fract_y
 _atom_site_fract_z
 _atom_site_thermal_displace_type
 _atom_site_B_iso_or_equiv
 _atom_site_type_symbol
Mn1 1.0000000000 0.2500000000 0.2500000000 0.0000000000  Biso 1.0 Mn
Mn2 1.0000000000 0.7500000000 0.7500000000 0.0000000000  Biso 1.0 Mn
Sn3 1.0000000000 0.6603264810 0.1603264810 0.8206529620  Biso 1.0 Sn
Sn4 1.0000000000 0.3396735190 0.8396735190 0.1793470380  Biso 1.0 Sn
Sn5 1.0000000000 0.1603264810 0.3396735190 0.5000000000  Biso 1.0 Sn
Sn6 1.0000000000 0.8396735190 0.6603264810 0.5000000000  Biso 1.0 Sn
