# AFLOW.org Repositories
# Mn1Se3Th1   [ORCC,ORCC,oS20] (STD_PRIM d
data_Mn1Se3Th1
_pd_phase_name Mn1Se3Th1
_cell_length_a  6.8946292650
_cell_length_b  6.8946292650
_cell_length_c  9.4830412861
_cell_angle_alpha  90.0000000000
_cell_angle_beta  90.0000000000
_cell_angle_gamma  145.2812221883
_symmetry_space_group_name_H-M  'P1'
_symmetry_Int_Tables_Number  1
loop_
_symmetry_equiv_pos_site_id
_symmetry_equiv_pos_as_xyz
  1  x,y,z
loop_
 _atom_site_label
 _atom_site_occupancy
 _atom_site_fract_x
 _atom_site_fract_y
 _atom_site_fract_z
 _atom_site_thermal_displace_type
 _atom_site_B_iso_or_equiv
 _atom_site_type_symbol
Mn1 1.0000000000 0.0000000000 0.0000000000 0.0000000000  Biso 1.0 Mn
Mn2 1.0000000000 0.0000000000 0.0000000000 0.5000000000  Biso 1.0 Mn
Se3 1.0000000000 0.6438799967 0.3561200033 0.9431211957  Biso 1.0 Se
Se4 1.0000000000 0.3561200033 0.6438799967 0.4431211957  Biso 1.0 Se
Se5 1.0000000000 0.6438799967 0.3561200033 0.5568788043  Biso 1.0 Se
Se6 1.0000000000 0.3561200033 0.6438799967 0.0568788043  Biso 1.0 Se
Se7 1.0000000000 0.9182223015 0.0817776985 0.7500000000  Biso 1.0 Se
Se8 1.0000000000 0.0817776985 0.9182223015 0.2500000000  Biso 1.0 Se
Th9 1.0000000000 0.2510096199 0.7489903801 0.7500000000  Biso 1.0 Th
Th10 1.0000000000 0.7489903801 0.2510096199 0.2500000000  Biso 1.0 Th
