# AFLOW.org Repositories
# Mn2O5Sr2   [ORC,ORC,oP18] (STD_PRIM doi:
data_Mn2O5Sr2
_pd_phase_name Mn2O5Sr2
_cell_length_a  3.8612780394
_cell_length_b  5.6187792442
_cell_length_c  11.0131802777
_cell_angle_alpha  90.0000000000
_cell_angle_beta  90.0000000000
_cell_angle_gamma  90.0000000000
_symmetry_space_group_name_H-M  'P1'
_symmetry_Int_Tables_Number  1
loop_
_symmetry_equiv_pos_site_id
_symmetry_equiv_pos_as_xyz
  1  x,y,z
loop_
 _atom_site_label
 _atom_site_occupancy
 _atom_site_fract_x
 _atom_site_fract_y
 _atom_site_fract_z
 _atom_site_thermal_displace_type
 _atom_site_B_iso_or_equiv
 _atom_site_type_symbol
Mn1 1.0000000000 0.5000000000 0.2602960707 0.8762157441  Biso 1.0 Mn
Mn2 1.0000000000 0.5000000000 0.7397039293 0.1237842559  Biso 1.0 Mn
Mn3 1.0000000000 0.5000000000 0.2397039293 0.3762157441  Biso 1.0 Mn
Mn4 1.0000000000 0.5000000000 0.7602960707 0.6237842559  Biso 1.0 Mn
O5 1.0000000000 0.0000000000 0.2960280181 0.9014245999  Biso 1.0 O
O6 1.0000000000 0.0000000000 0.7039719819 0.0985754001  Biso 1.0 O
O7 1.0000000000 0.0000000000 0.2039719819 0.4014245999  Biso 1.0 O
O8 1.0000000000 0.0000000000 0.7960280181 0.5985754001  Biso 1.0 O
O9 1.0000000000 0.5000000000 0.5339689769 0.7719186542  Biso 1.0 O
O10 1.0000000000 0.5000000000 0.4660310231 0.2280813458  Biso 1.0 O
O11 1.0000000000 0.5000000000 0.9660310231 0.2719186542  Biso 1.0 O
O12 1.0000000000 0.5000000000 0.0339689769 0.7280813458  Biso 1.0 O
O13 1.0000000000 0.5000000000 0.0000000000 0.0000000000  Biso 1.0 O
O14 1.0000000000 0.5000000000 0.5000000000 0.5000000000  Biso 1.0 O
Sr15 1.0000000000 0.0000000000 0.2869204574 0.6328954605  Biso 1.0 Sr
Sr16 1.0000000000 0.0000000000 0.7130795426 0.3671045395  Biso 1.0 Sr
Sr17 1.0000000000 0.0000000000 0.2130795426 0.1328954605  Biso 1.0 Sr
Sr18 1.0000000000 0.0000000000 0.7869204574 0.8671045395  Biso 1.0 Sr
