# AFLOW.org Repositories
# Mn2O3Ta1   [HEX,HEX,hP6] (STD_PRIM doi:1
data_Mn2O3Ta1
_pd_phase_name Mn2O3Ta1
_cell_length_a  5.0487232858
_cell_length_b  5.0487232858
_cell_length_c  3.1469605020
_cell_angle_alpha  90.0000000000
_cell_angle_beta  90.0000000000
_cell_angle_gamma  120.0000000000
_symmetry_space_group_name_H-M  'P1'
_symmetry_Int_Tables_Number  1
loop_
_symmetry_equiv_pos_site_id
_symmetry_equiv_pos_as_xyz
  1  x,y,z
loop_
 _atom_site_label
 _atom_site_occupancy
 _atom_site_fract_x
 _atom_site_fract_y
 _atom_site_fract_z
 _atom_site_thermal_displace_type
 _atom_site_B_iso_or_equiv
 _atom_site_type_symbol
Mn1 1.0000000000 0.3333488146 0.6666744073 0.5000000000  Biso 1.0 Mn
Mn2 1.0000000000 0.6666511854 0.3333255927 0.5000000000  Biso 1.0 Mn
O3 1.0000000000 0.5000000000 0.5000000000 0.0000000000  Biso 1.0 O
O4 1.0000000000 0.5000000000 0.0000000000 0.0000000000  Biso 1.0 O
O5 1.0000000000 0.0000000000 0.5000000000 0.0000000000  Biso 1.0 O
Ta6 1.0000000000 0.0000000000 0.0000000000 0.0000000000  Biso 1.0 Ta
