# AFLOW.org Repositories
# Mn2O7Sb2   [FCC,FCC,cF88] (STD_PRIM doi:
data_Mn2O7Sb2
_pd_phase_name Mn2O7Sb2
_cell_length_a  7.2737418693
_cell_length_b  7.2737418693
_cell_length_c  7.2737418693
_cell_angle_alpha  60.0000000000
_cell_angle_beta  60.0000000000
_cell_angle_gamma  60.0000000000
_symmetry_space_group_name_H-M  'P1'
_symmetry_Int_Tables_Number  1
loop_
_symmetry_equiv_pos_site_id
_symmetry_equiv_pos_as_xyz
  1  x,y,z
loop_
 _atom_site_label
 _atom_site_occupancy
 _atom_site_fract_x
 _atom_site_fract_y
 _atom_site_fract_z
 _atom_site_thermal_displace_type
 _atom_site_B_iso_or_equiv
 _atom_site_type_symbol
Mn1 1.0000000000 0.5000000000 0.5000000000 0.5000000000  Biso 1.0 Mn
Mn2 1.0000000000 0.0000000000 0.0000000000 0.5000000000  Biso 1.0 Mn
Mn3 1.0000000000 0.5000000000 0.0000000000 0.0000000000  Biso 1.0 Mn
Mn4 1.0000000000 0.5000000000 0.0000000000 0.5000000000  Biso 1.0 Mn
O5 1.0000000000 0.6719815381 0.5780184619 0.6719815381  Biso 1.0 O
O6 1.0000000000 0.0780184619 0.1719815381 0.0780184619  Biso 1.0 O
O7 1.0000000000 0.6719815381 0.5780184619 0.0780184619  Biso 1.0 O
O8 1.0000000000 0.0780184619 0.1719815381 0.6719815381  Biso 1.0 O
O9 1.0000000000 0.0780184619 0.5780184619 0.6719815381  Biso 1.0 O
O10 1.0000000000 0.6719815381 0.1719815381 0.0780184619  Biso 1.0 O
O11 1.0000000000 0.9219815381 0.8280184619 0.3280184619  Biso 1.0 O
O12 1.0000000000 0.3280184619 0.4219815381 0.9219815381  Biso 1.0 O
O13 1.0000000000 0.9219815381 0.8280184619 0.9219815381  Biso 1.0 O
O14 1.0000000000 0.3280184619 0.4219815381 0.3280184619  Biso 1.0 O
O15 1.0000000000 0.9219815381 0.4219815381 0.3280184619  Biso 1.0 O
O16 1.0000000000 0.3280184619 0.8280184619 0.9219815381  Biso 1.0 O
O17 1.0000000000 0.6250000000 0.1250000000 0.6250000000  Biso 1.0 O
O18 1.0000000000 0.3750000000 0.8750000000 0.3750000000  Biso 1.0 O
Sb19 1.0000000000 0.0000000000 0.0000000000 0.0000000000  Biso 1.0 Sb
Sb20 1.0000000000 0.5000000000 0.5000000000 0.0000000000  Biso 1.0 Sb
Sb21 1.0000000000 0.0000000000 0.5000000000 0.5000000000  Biso 1.0 Sb
Sb22 1.0000000000 0.0000000000 0.5000000000 0.0000000000  Biso 1.0 Sb
