# AFLOW.org Repositories
# Mn2Sc1   [HEX,HEX,hP12] (STD_PRIM doi:10
data_Mn2Sc1
_pd_phase_name Mn2Sc1
_cell_length_a  5.6888843125
_cell_length_b  5.6888843125
_cell_length_c  9.1010137834
_cell_angle_alpha  90.0000000000
_cell_angle_beta  90.0000000000
_cell_angle_gamma  120.0000000000
_symmetry_space_group_name_H-M  'P1'
_symmetry_Int_Tables_Number  1
loop_
_symmetry_equiv_pos_site_id
_symmetry_equiv_pos_as_xyz
  1  x,y,z
loop_
 _atom_site_label
 _atom_site_occupancy
 _atom_site_fract_x
 _atom_site_fract_y
 _atom_site_fract_z
 _atom_site_thermal_displace_type
 _atom_site_B_iso_or_equiv
 _atom_site_type_symbol
Mn1 1.0000000000 0.0000000000 0.0000000000 0.0000000000  Biso 1.0 Mn
Mn2 1.0000000000 0.0000000000 0.0000000000 0.5000000000  Biso 1.0 Mn
Mn3 1.0000000000 0.6592029004 0.8296027651 0.2500000000  Biso 1.0 Mn
Mn4 1.0000000000 0.1703998647 0.8296027651 0.2500000000  Biso 1.0 Mn
Mn5 1.0000000000 0.1703915196 0.3407830393 0.2500000000  Biso 1.0 Mn
Mn6 1.0000000000 0.3407970996 0.1703972349 0.7500000000  Biso 1.0 Mn
Mn7 1.0000000000 0.8296001353 0.1703972349 0.7500000000  Biso 1.0 Mn
Mn8 1.0000000000 0.8296084804 0.6592169607 0.7500000000  Biso 1.0 Mn
Sc9 1.0000000000 0.6666721109 0.3333442219 0.0618951818  Biso 1.0 Sc
Sc10 1.0000000000 0.3333278891 0.6666557781 0.5618951818  Biso 1.0 Sc
Sc11 1.0000000000 0.3333278891 0.6666557781 0.9381048182  Biso 1.0 Sc
Sc12 1.0000000000 0.6666721109 0.3333442219 0.4381048182  Biso 1.0 Sc
