# AFLOW.org Repositories
# Mn3Nb6O11   [HEX,HEX,hP20] (STD_PRIM doi
data_Mn3Nb6O11
_pd_phase_name Mn3Nb6O11
_cell_length_a  6.1506525452
_cell_length_b  6.1506525452
_cell_length_c  7.7359587723
_cell_angle_alpha  90.0000000000
_cell_angle_beta  90.0000000000
_cell_angle_gamma  120.0000000000
_symmetry_space_group_name_H-M  'P1'
_symmetry_Int_Tables_Number  1
loop_
_symmetry_equiv_pos_site_id
_symmetry_equiv_pos_as_xyz
  1  x,y,z
loop_
 _atom_site_label
 _atom_site_occupancy
 _atom_site_fract_x
 _atom_site_fract_y
 _atom_site_fract_z
 _atom_site_thermal_displace_type
 _atom_site_B_iso_or_equiv
 _atom_site_type_symbol
Mn1 1.0000000000 0.0000000000 0.0000000000 0.5000000000  Biso 1.0 Mn
Mn2 1.0000000000 0.3333221430 0.6666442859 0.4306273635  Biso 1.0 Mn
Mn3 1.0000000000 0.6666778570 0.3333557141 0.5693726365  Biso 1.0 Mn
Nb4 1.0000000000 0.8455114796 0.6910229593 0.1481545078  Biso 1.0 Nb
Nb5 1.0000000000 0.3089862587 0.1544918326 0.1481545883  Biso 1.0 Nb
Nb6 1.0000000000 0.8455055739 0.1544918326 0.1481545883  Biso 1.0 Nb
Nb7 1.0000000000 0.1544885204 0.3089770407 0.8518454922  Biso 1.0 Nb
Nb8 1.0000000000 0.1544944261 0.8455081674 0.8518454117  Biso 1.0 Nb
Nb9 1.0000000000 0.6910137413 0.8455081674 0.8518454117  Biso 1.0 Nb
O10 1.0000000000 0.5000000000 0.0000000000 0.0000000000  Biso 1.0 O
O11 1.0000000000 0.0000000000 0.5000000000 0.0000000000  Biso 1.0 O
O12 1.0000000000 0.5000000000 0.5000000000 0.0000000000  Biso 1.0 O
O13 1.0000000000 0.1559979985 0.3119959969 0.3149640795  Biso 1.0 O
O14 1.0000000000 0.6879899529 0.8439983677 0.3149638571  Biso 1.0 O
O15 1.0000000000 0.1560084149 0.8439983677 0.3149638571  Biso 1.0 O
O16 1.0000000000 0.8440020015 0.6880040031 0.6850359205  Biso 1.0 O
O17 1.0000000000 0.8439915851 0.1560016323 0.6850361429  Biso 1.0 O
O18 1.0000000000 0.3120100471 0.1560016323 0.6850361429  Biso 1.0 O
O19 1.0000000000 0.6666789326 0.3333578652 0.3013623602  Biso 1.0 O
O20 1.0000000000 0.3333210674 0.6666421348 0.6986376398  Biso 1.0 O
