# AFLOW.org Repositories
# Mn6Sn6Zr1   [HEX,HEX,hP13] (STD_PRIM doi
data_Mn6Sn6Zr1
_pd_phase_name Mn6Sn6Zr1
_cell_length_a  5.8503906123
_cell_length_b  5.8503906123
_cell_length_c  9.6179351987
_cell_angle_alpha  90.0000000000
_cell_angle_beta  90.0000000000
_cell_angle_gamma  120.0000000000
_symmetry_space_group_name_H-M  'P1'
_symmetry_Int_Tables_Number  1
loop_
_symmetry_equiv_pos_site_id
_symmetry_equiv_pos_as_xyz
  1  x,y,z
loop_
 _atom_site_label
 _atom_site_occupancy
 _atom_site_fract_x
 _atom_site_fract_y
 _atom_site_fract_z
 _atom_site_thermal_displace_type
 _atom_site_B_iso_or_equiv
 _atom_site_type_symbol
Mn1 1.0000000000 0.5000000000 0.0000000000 0.2444283596  Biso 1.0 Mn
Mn2 1.0000000000 0.0000000000 0.5000000000 0.2444283596  Biso 1.0 Mn
Mn3 1.0000000000 0.5000000000 0.5000000000 0.2444219595  Biso 1.0 Mn
Mn4 1.0000000000 0.0000000000 0.5000000000 0.7555716404  Biso 1.0 Mn
Mn5 1.0000000000 0.5000000000 0.0000000000 0.7555716404  Biso 1.0 Mn
Mn6 1.0000000000 0.5000000000 0.5000000000 0.7555780405  Biso 1.0 Mn
Sn7 1.0000000000 0.3333303993 0.6666696007 0.5000000000  Biso 1.0 Sn
Sn8 1.0000000000 0.6666696007 0.3333303993 0.5000000000  Biso 1.0 Sn
Sn9 1.0000000000 0.3333340646 0.6666659354 0.0000000000  Biso 1.0 Sn
Sn10 1.0000000000 0.6666659354 0.3333340646 0.0000000000  Biso 1.0 Sn
Sn11 1.0000000000 0.0000000000 0.0000000000 0.3255344355  Biso 1.0 Sn
Sn12 1.0000000000 0.0000000000 0.0000000000 0.6744655645  Biso 1.0 Sn
Zr13 1.0000000000 0.0000000000 0.0000000000 0.0000000000  Biso 1.0 Zr
