# AFLOW.org Repositories
# Mo1Ni1P1   [HEX,HEX,hP9] (STD_PRIM doi:1
data_Mo1Ni1P1
_pd_phase_name Mo1Ni1P1
_cell_length_a  5.8610455887
_cell_length_b  5.8610455887
_cell_length_c  3.7279635671
_cell_angle_alpha  90.0000000000
_cell_angle_beta  90.0000000000
_cell_angle_gamma  120.0000000000
_symmetry_space_group_name_H-M  'P1'
_symmetry_Int_Tables_Number  1
loop_
_symmetry_equiv_pos_site_id
_symmetry_equiv_pos_as_xyz
  1  x,y,z
loop_
 _atom_site_label
 _atom_site_occupancy
 _atom_site_fract_x
 _atom_site_fract_y
 _atom_site_fract_z
 _atom_site_thermal_displace_type
 _atom_site_B_iso_or_equiv
 _atom_site_type_symbol
Mo1 1.0000000000 0.5856395241 0.0000000000 0.5000000000  Biso 1.0 Mo
Mo2 1.0000000000 0.0000000000 0.5856395241 0.5000000000  Biso 1.0 Mo
Mo3 1.0000000000 0.4143609855 0.4143609855 0.5000000000  Biso 1.0 Mo
Ni4 1.0000000000 0.2502383300 0.0000000000 0.0000000000  Biso 1.0 Ni
Ni5 1.0000000000 0.0000000000 0.2502383300 0.0000000000  Biso 1.0 Ni
Ni6 1.0000000000 0.7497574221 0.7497574221 0.0000000000  Biso 1.0 Ni
P7 1.0000000000 0.3333238177 0.6666769435 0.0000000000  Biso 1.0 P
P8 1.0000000000 0.6666769435 0.3333238177 0.0000000000  Biso 1.0 P
P9 1.0000000000 0.0000000000 0.0000000000 0.5000000000  Biso 1.0 P
