# AFLOW.org Repositories
# Mo1P1Zr1   [HEX,HEX,hP9] (STD_PRIM doi:1
data_Mo1P1Zr1
_pd_phase_name Mo1P1Zr1
_cell_length_a  6.9793226087
_cell_length_b  6.9793226087
_cell_length_c  3.4663251938
_cell_angle_alpha  90.0000000000
_cell_angle_beta  90.0000000000
_cell_angle_gamma  120.0000000000
_symmetry_space_group_name_H-M  'P1'
_symmetry_Int_Tables_Number  1
loop_
_symmetry_equiv_pos_site_id
_symmetry_equiv_pos_as_xyz
  1  x,y,z
loop_
 _atom_site_label
 _atom_site_occupancy
 _atom_site_fract_x
 _atom_site_fract_y
 _atom_site_fract_z
 _atom_site_thermal_displace_type
 _atom_site_B_iso_or_equiv
 _atom_site_type_symbol
Mo1 1.0000000000 0.7476874656 0.7476874656 0.0000000000  Biso 1.0 Mo
Mo2 1.0000000000 0.2523186060 0.0000000000 0.0000000000  Biso 1.0 Mo
Mo3 1.0000000000 0.0000000000 0.2523194192 0.0000000000  Biso 1.0 Mo
P4 1.0000000000 0.0000000000 0.0000000000 0.5000000000  Biso 1.0 P
P5 1.0000000000 0.3333661038 0.6666847645 0.0000000000  Biso 1.0 P
P6 1.0000000000 0.6666338962 0.3333186607 0.0000000000  Biso 1.0 P
Zr7 1.0000000000 0.4035779345 0.4035779345 0.5000000000  Biso 1.0 Zr
Zr8 1.0000000000 0.5964179491 0.0000000000 0.5000000000  Biso 1.0 Zr
Zr9 1.0000000000 0.0000000000 0.5964153173 0.5000000000  Biso 1.0 Zr
