# AFLOW.org Repositories
# Mo1P2   [ORCC,ORCC,oS12] (STD_PRIM doi:1
data_Mo1P2
_pd_phase_name Mo1P2
_cell_length_a  5.8489800428
_cell_length_b  5.8489800428
_cell_length_c  5.0213311062
_cell_angle_alpha  90.0000000000
_cell_angle_beta  90.0000000000
_cell_angle_gamma  148.4734608077
_symmetry_space_group_name_H-M  'P1'
_symmetry_Int_Tables_Number  1
loop_
_symmetry_equiv_pos_site_id
_symmetry_equiv_pos_as_xyz
  1  x,y,z
loop_
 _atom_site_label
 _atom_site_occupancy
 _atom_site_fract_x
 _atom_site_fract_y
 _atom_site_fract_z
 _atom_site_thermal_displace_type
 _atom_site_B_iso_or_equiv
 _atom_site_type_symbol
Mo1 1.0000000000 0.9068169723 0.0931830277 0.0000000000  Biso 1.0 Mo
Mo2 1.0000000000 0.0931830277 0.9068169723 0.5003336801  Biso 1.0 Mo
P3 1.0000000000 0.7015166831 0.2984833169 0.1979402382  Biso 1.0 P
P4 1.0000000000 0.2984833169 0.7015166831 0.6979402382  Biso 1.0 P
P5 1.0000000000 0.5696551202 0.4303448798 0.8814260817  Biso 1.0 P
P6 1.0000000000 0.4303448798 0.5696551202 0.3814260817  Biso 1.0 P
