# AFLOW.org Repositories
# Mo1Si1Zr1   [ORC,ORC,oP12] (STD_PRIM doi
data_Mo1Si1Zr1
_pd_phase_name Mo1Si1Zr1
_cell_length_a  3.5458859047
_cell_length_b  7.0163715999
_cell_length_c  8.2603971146
_cell_angle_alpha  90.0000000000
_cell_angle_beta  90.0000000000
_cell_angle_gamma  90.0000000000
_symmetry_space_group_name_H-M  'P1'
_symmetry_Int_Tables_Number  1
loop_
_symmetry_equiv_pos_site_id
_symmetry_equiv_pos_as_xyz
  1  x,y,z
loop_
 _atom_site_label
 _atom_site_occupancy
 _atom_site_fract_x
 _atom_site_fract_y
 _atom_site_fract_z
 _atom_site_thermal_displace_type
 _atom_site_B_iso_or_equiv
 _atom_site_type_symbol
Mo1 1.0000000000 0.2500000000 0.1304360140 0.9393667175  Biso 1.0 Mo
Mo2 1.0000000000 0.7500000000 0.3695639860 0.4393667175  Biso 1.0 Mo
Mo3 1.0000000000 0.7500000000 0.8695639860 0.0606332825  Biso 1.0 Mo
Mo4 1.0000000000 0.2500000000 0.6304360140 0.5606332825  Biso 1.0 Mo
Si5 1.0000000000 0.2500000000 0.2547510897 0.6372406390  Biso 1.0 Si
Si6 1.0000000000 0.7500000000 0.2452489103 0.1372406390  Biso 1.0 Si
Si7 1.0000000000 0.7500000000 0.7452489103 0.3627593610  Biso 1.0 Si
Si8 1.0000000000 0.2500000000 0.7547510897 0.8627593610  Biso 1.0 Si
Zr9 1.0000000000 0.2500000000 0.0442688400 0.3322153440  Biso 1.0 Zr
Zr10 1.0000000000 0.7500000000 0.4557311600 0.8322153440  Biso 1.0 Zr
Zr11 1.0000000000 0.7500000000 0.9557311600 0.6677846560  Biso 1.0 Zr
Zr12 1.0000000000 0.2500000000 0.5442688400 0.1677846560  Biso 1.0 Zr
