# AFLOW.org Repositories
# Mo1Si2   [HEX,HEX,hP9] (STD_PRIM doi:10.
data_Mo1Si2
_pd_phase_name Mo1Si2
_cell_length_a  4.6262603352
_cell_length_b  4.6262603352
_cell_length_c  6.6241089047
_cell_angle_alpha  90.0000000000
_cell_angle_beta  90.0000000000
_cell_angle_gamma  120.0000000000
_symmetry_space_group_name_H-M  'P1'
_symmetry_Int_Tables_Number  1
loop_
_symmetry_equiv_pos_site_id
_symmetry_equiv_pos_as_xyz
  1  x,y,z
loop_
 _atom_site_label
 _atom_site_occupancy
 _atom_site_fract_x
 _atom_site_fract_y
 _atom_site_fract_z
 _atom_site_thermal_displace_type
 _atom_site_B_iso_or_equiv
 _atom_site_type_symbol
Mo1 1.0000000000 0.5000000000 0.0000000000 0.0000000000  Biso 1.0 Mo
Mo2 1.0000000000 0.0000000000 0.5000000000 0.6666666667  Biso 1.0 Mo
Mo3 1.0000000000 0.5000000000 0.5000000000 0.3333333333  Biso 1.0 Mo
Si4 1.0000000000 0.1636058609 0.3272117218 0.0000000000  Biso 1.0 Si
Si5 1.0000000000 0.6727882782 0.8363941391 0.6666666667  Biso 1.0 Si
Si6 1.0000000000 0.1636058609 0.8363941391 0.3333333333  Biso 1.0 Si
Si7 1.0000000000 0.8363941391 0.6727882782 0.0000000000  Biso 1.0 Si
Si8 1.0000000000 0.3272117218 0.1636058609 0.6666666667  Biso 1.0 Si
Si9 1.0000000000 0.8363941391 0.1636058609 0.3333333333  Biso 1.0 Si
