# AFLOW.org Repositories
# Mo3Sb7   [BCC,BCC,cI40] (STD_PRIM doi:10
data_Mo3Sb7
_pd_phase_name Mo3Sb7
_cell_length_a  8.3822793689
_cell_length_b  8.3822793689
_cell_length_c  8.3822793689
_cell_angle_alpha  109.4712206345
_cell_angle_beta  109.4712206345
_cell_angle_gamma  109.4712206345
_symmetry_space_group_name_H-M  'P1'
_symmetry_Int_Tables_Number  1
loop_
_symmetry_equiv_pos_site_id
_symmetry_equiv_pos_as_xyz
  1  x,y,z
loop_
 _atom_site_label
 _atom_site_occupancy
 _atom_site_fract_x
 _atom_site_fract_y
 _atom_site_fract_z
 _atom_site_thermal_displace_type
 _atom_site_B_iso_or_equiv
 _atom_site_type_symbol
Mo1 1.0000000000 0.3419003257 0.0000000000 0.3419003257  Biso 1.0 Mo
Mo2 1.0000000000 0.6580996743 0.0000000000 0.6580996743  Biso 1.0 Mo
Mo3 1.0000000000 0.0000000000 0.6580996743 0.6580996743  Biso 1.0 Mo
Mo4 1.0000000000 0.0000000000 0.3419003257 0.3419003257  Biso 1.0 Mo
Mo5 1.0000000000 0.3419003257 0.3419003257 0.0000000000  Biso 1.0 Mo
Mo6 1.0000000000 0.6580996743 0.6580996743 0.0000000000  Biso 1.0 Mo
Sb7 1.0000000000 0.7500000000 0.5000000000 0.2500000000  Biso 1.0 Sb
Sb8 1.0000000000 0.2500000000 0.5000000000 0.7500000000  Biso 1.0 Sb
Sb9 1.0000000000 0.5000000000 0.7500000000 0.2500000000  Biso 1.0 Sb
Sb10 1.0000000000 0.5000000000 0.2500000000 0.7500000000  Biso 1.0 Sb
Sb11 1.0000000000 0.2500000000 0.7500000000 0.5000000000  Biso 1.0 Sb
Sb12 1.0000000000 0.7500000000 0.2500000000 0.5000000000  Biso 1.0 Sb
Sb13 1.0000000000 0.3218779068 0.0000000000 0.0000000000  Biso 1.0 Sb
Sb14 1.0000000000 0.0000000000 0.3218779068 0.0000000000  Biso 1.0 Sb
Sb15 1.0000000000 0.6781220932 0.6781220932 0.6781220932  Biso 1.0 Sb
Sb16 1.0000000000 0.0000000000 0.0000000000 0.3218779068  Biso 1.0 Sb
Sb17 1.0000000000 0.0000000000 0.6781220932 0.0000000000  Biso 1.0 Sb
Sb18 1.0000000000 0.6781220932 0.0000000000 0.0000000000  Biso 1.0 Sb
Sb19 1.0000000000 0.3218779068 0.3218779068 0.3218779068  Biso 1.0 Sb
Sb20 1.0000000000 0.0000000000 0.0000000000 0.6781220932  Biso 1.0 Sb
