# AFLOW.org Repositories
# Mo4N1Ni2   [FCC,FCC,cF112] (STD_PRIM doi
data_Mo4N1Ni2
_pd_phase_name Mo4N1Ni2
_cell_length_a  7.9756047773
_cell_length_b  7.9756047773
_cell_length_c  7.9756047773
_cell_angle_alpha  60.0000000000
_cell_angle_beta  60.0000000000
_cell_angle_gamma  60.0000000000
_symmetry_space_group_name_H-M  'P1'
_symmetry_Int_Tables_Number  1
loop_
_symmetry_equiv_pos_site_id
_symmetry_equiv_pos_as_xyz
  1  x,y,z
loop_
 _atom_site_label
 _atom_site_occupancy
 _atom_site_fract_x
 _atom_site_fract_y
 _atom_site_fract_z
 _atom_site_thermal_displace_type
 _atom_site_B_iso_or_equiv
 _atom_site_type_symbol
Mo1 1.0000000000 0.5000000000 0.5000000000 0.5000000000  Biso 1.0 Mo
Mo2 1.0000000000 0.5000000000 0.0000000000 0.0000000000  Biso 1.0 Mo
Mo3 1.0000000000 0.5000000000 0.0000000000 0.5000000000  Biso 1.0 Mo
Mo4 1.0000000000 0.0000000000 0.0000000000 0.5000000000  Biso 1.0 Mo
Mo5 1.0000000000 0.0678979163 0.5678979163 0.6821020837  Biso 1.0 Mo
Mo6 1.0000000000 0.6821020837 0.1821020837 0.0678979163  Biso 1.0 Mo
Mo7 1.0000000000 0.6821020837 0.5678979163 0.6821020837  Biso 1.0 Mo
Mo8 1.0000000000 0.0678979163 0.1821020837 0.0678979163  Biso 1.0 Mo
Mo9 1.0000000000 0.6821020837 0.5678979163 0.0678979163  Biso 1.0 Mo
Mo10 1.0000000000 0.0678979163 0.1821020837 0.6821020837  Biso 1.0 Mo
Mo11 1.0000000000 0.9321020837 0.8178979163 0.9321020837  Biso 1.0 Mo
Mo12 1.0000000000 0.3178979163 0.4321020837 0.3178979163  Biso 1.0 Mo
Mo13 1.0000000000 0.3178979163 0.8178979163 0.9321020837  Biso 1.0 Mo
Mo14 1.0000000000 0.9321020837 0.4321020837 0.3178979163  Biso 1.0 Mo
Mo15 1.0000000000 0.3178979163 0.4321020837 0.9321020837  Biso 1.0 Mo
Mo16 1.0000000000 0.9321020837 0.8178979163 0.3178979163  Biso 1.0 Mo
N17 1.0000000000 0.0000000000 0.0000000000 0.0000000000  Biso 1.0 N
N18 1.0000000000 0.0000000000 0.5000000000 0.5000000000  Biso 1.0 N
N19 1.0000000000 0.0000000000 0.5000000000 0.0000000000  Biso 1.0 N
N20 1.0000000000 0.5000000000 0.5000000000 0.0000000000  Biso 1.0 N
Ni21 1.0000000000 0.7085085338 0.8744743987 0.7085085338  Biso 1.0 Ni
Ni22 1.0000000000 0.7085085337 0.2085085338 0.3744743987  Biso 1.0 Ni
Ni23 1.0000000000 0.7085085338 0.2085085338 0.7085085338  Biso 1.0 Ni
Ni24 1.0000000000 0.3744743987 0.2085085338 0.7085085338  Biso 1.0 Ni
Ni25 1.0000000000 0.2914914662 0.7914914662 0.6255256013  Biso 1.0 Ni
Ni26 1.0000000000 0.2914914662 0.1255256013 0.2914914662  Biso 1.0 Ni
Ni27 1.0000000000 0.2914914662 0.7914914662 0.2914914662  Biso 1.0 Ni
Ni28 1.0000000000 0.6255256013 0.7914914662 0.2914914662  Biso 1.0 Ni
