# AFLOW.org Repositories
# N0.2V0.6Zn0.4   [CUB,CUB,cP24] (STD_PRIM
data_N0.2V0.6Zn0.4
_pd_phase_name N0.2V0.6Zn0.4
_cell_length_a  6.5996452385
_cell_length_b  6.5996452385
_cell_length_c  6.5996452385
_cell_angle_alpha  90.0000000000
_cell_angle_beta  90.0000000000
_cell_angle_gamma  90.0000000000
_symmetry_space_group_name_H-M  'P1'
_symmetry_Int_Tables_Number  1
loop_
_symmetry_equiv_pos_site_id
_symmetry_equiv_pos_as_xyz
  1  x,y,z
loop_
 _atom_site_label
 _atom_site_occupancy
 _atom_site_fract_x
 _atom_site_fract_y
 _atom_site_fract_z
 _atom_site_thermal_displace_type
 _atom_site_B_iso_or_equiv
 _atom_site_type_symbol
N1 1.0000000000 0.6250000000 0.6250000000 0.3750000000  Biso 1.0 N
N2 1.0000000000 0.8750000000 0.3750000000 0.8750000000  Biso 1.0 N
N3 1.0000000000 0.3750000000 0.1250000000 0.1250000000  Biso 1.0 N
N4 1.0000000000 0.1250000000 0.8750000000 0.6250000000  Biso 1.0 N
V5 1.0000000000 0.8750000000 0.7890681727 0.4609318273  Biso 1.0 V
V6 1.0000000000 0.6250000000 0.2109318273 0.9609318273  Biso 1.0 V
V7 1.0000000000 0.1250000000 0.2890681727 0.0390681727  Biso 1.0 V
V8 1.0000000000 0.3750000000 0.7109318273 0.5390681727  Biso 1.0 V
V9 1.0000000000 0.5390681727 0.8750000000 0.2109318273  Biso 1.0 V
V10 1.0000000000 0.0390681727 0.6250000000 0.7890681727  Biso 1.0 V
V11 1.0000000000 0.9609318273 0.1250000000 0.7109318273  Biso 1.0 V
V12 1.0000000000 0.4609318273 0.3750000000 0.2890681727  Biso 1.0 V
V13 1.0000000000 0.7890681727 0.5390681727 0.1250000000  Biso 1.0 V
V14 1.0000000000 0.2109318273 0.0390681727 0.3750000000  Biso 1.0 V
V15 1.0000000000 0.2890681727 0.9609318273 0.8750000000  Biso 1.0 V
V16 1.0000000000 0.7109318273 0.4609318273 0.6250000000  Biso 1.0 V
Zn17 1.0000000000 0.9267176844 0.9267176844 0.0732823156  Biso 1.0 Zn
Zn18 1.0000000000 0.5732823156 0.0732823156 0.5732823156  Biso 1.0 Zn
Zn19 1.0000000000 0.0732823156 0.4267176844 0.4267176844  Biso 1.0 Zn
Zn20 1.0000000000 0.4267176844 0.5732823156 0.9267176844  Biso 1.0 Zn
Zn21 1.0000000000 0.1767176844 0.6767176844 0.1767176844  Biso 1.0 Zn
Zn22 1.0000000000 0.3232823156 0.3232823156 0.6767176844  Biso 1.0 Zn
Zn23 1.0000000000 0.6767176844 0.8232823156 0.8232823156  Biso 1.0 Zn
Zn24 1.0000000000 0.8232823156 0.1767176844 0.3232823156  Biso 1.0 Zn
