# AFLOW.org Repositories
# N1Nb4Ni2   [FCC,FCC,cF112] (STD_PRIM doi
data_N1Nb4Ni2
_pd_phase_name N1Nb4Ni2
_cell_length_a  8.2391904391
_cell_length_b  8.2391904391
_cell_length_c  8.2391904391
_cell_angle_alpha  60.0000000000
_cell_angle_beta  60.0000000000
_cell_angle_gamma  60.0000000000
_symmetry_space_group_name_H-M  'P1'
_symmetry_Int_Tables_Number  1
loop_
_symmetry_equiv_pos_site_id
_symmetry_equiv_pos_as_xyz
  1  x,y,z
loop_
 _atom_site_label
 _atom_site_occupancy
 _atom_site_fract_x
 _atom_site_fract_y
 _atom_site_fract_z
 _atom_site_thermal_displace_type
 _atom_site_B_iso_or_equiv
 _atom_site_type_symbol
N1 1.0000000000 0.5000000000 0.5000000000 0.5000000000  Biso 1.0 N
N2 1.0000000000 0.5000000000 0.0000000000 0.0000000000  Biso 1.0 N
N3 1.0000000000 0.5000000000 0.0000000000 0.5000000000  Biso 1.0 N
N4 1.0000000000 0.0000000000 0.0000000000 0.5000000000  Biso 1.0 N
Nb5 1.0000000000 0.0000000000 0.0000000000 0.0000000000  Biso 1.0 Nb
Nb6 1.0000000000 0.0000000000 0.5000000000 0.5000000000  Biso 1.0 Nb
Nb7 1.0000000000 0.0000000000 0.5000000000 0.0000000000  Biso 1.0 Nb
Nb8 1.0000000000 0.5000000000 0.5000000000 0.0000000000  Biso 1.0 Nb
Nb9 1.0000000000 0.1925826614 0.6925826614 0.5574173386  Biso 1.0 Nb
Nb10 1.0000000000 0.5574173386 0.0574173386 0.1925826614  Biso 1.0 Nb
Nb11 1.0000000000 0.5574173386 0.6925826614 0.5574173386  Biso 1.0 Nb
Nb12 1.0000000000 0.1925826614 0.0574173386 0.1925826614  Biso 1.0 Nb
Nb13 1.0000000000 0.5574173386 0.6925826614 0.1925826614  Biso 1.0 Nb
Nb14 1.0000000000 0.1925826614 0.0574173386 0.5574173386  Biso 1.0 Nb
Nb15 1.0000000000 0.8074173386 0.9425826614 0.8074173386  Biso 1.0 Nb
Nb16 1.0000000000 0.4425826614 0.3074173386 0.4425826614  Biso 1.0 Nb
Nb17 1.0000000000 0.4425826614 0.9425826614 0.8074173386  Biso 1.0 Nb
Nb18 1.0000000000 0.8074173386 0.3074173386 0.4425826614  Biso 1.0 Nb
Nb19 1.0000000000 0.4425826614 0.3074173386 0.8074173386  Biso 1.0 Nb
Nb20 1.0000000000 0.8074173386 0.9425826614 0.4425826614  Biso 1.0 Nb
Ni21 1.0000000000 0.7954458842 0.6136623473 0.7954458842  Biso 1.0 Ni
Ni22 1.0000000000 0.7954458842 0.2954458842 0.1136623473  Biso 1.0 Ni
Ni23 1.0000000000 0.7954458842 0.2954458842 0.7954458842  Biso 1.0 Ni
Ni24 1.0000000000 0.1136623473 0.2954458842 0.7954458842  Biso 1.0 Ni
Ni25 1.0000000000 0.2045541158 0.7045541158 0.8863376527  Biso 1.0 Ni
Ni26 1.0000000000 0.2045541158 0.3863376527 0.2045541158  Biso 1.0 Ni
Ni27 1.0000000000 0.2045541158 0.7045541158 0.2045541158  Biso 1.0 Ni
Ni28 1.0000000000 0.8863376527 0.7045541158 0.2045541158  Biso 1.0 Ni
