# AFLOW.org Repositories
# N1Nb1   [HEX,HEX,hP4] (STD_PRIM doi:10.1
data_N1Nb1
_pd_phase_name N1Nb1
_cell_length_a  3.1938654847
_cell_length_b  3.1938654847
_cell_length_c  6.0499393742
_cell_angle_alpha  90.0000000000
_cell_angle_beta  90.0000000000
_cell_angle_gamma  120.0000000000
_symmetry_space_group_name_H-M  'P1'
_symmetry_Int_Tables_Number  1
loop_
_symmetry_equiv_pos_site_id
_symmetry_equiv_pos_as_xyz
  1  x,y,z
loop_
 _atom_site_label
 _atom_site_occupancy
 _atom_site_fract_x
 _atom_site_fract_y
 _atom_site_fract_z
 _atom_site_thermal_displace_type
 _atom_site_B_iso_or_equiv
 _atom_site_type_symbol
N1 1.0000000000 0.6666772692 0.3333227308 0.3424795944  Biso 1.0 N
N2 1.0000000000 0.3333227308 0.6666772692 0.8424795944  Biso 1.0 N
Nb3 1.0000000000 0.6666691872 0.3333308128 0.0135204056  Biso 1.0 Nb
Nb4 1.0000000000 0.3333308128 0.6666691872 0.5135204056  Biso 1.0 Nb
