# AFLOW.org Repositories
# N1Ni2W3   [CUB,CUB,cP24] (STD_PRIM doi:1
data_N1Ni2W3
_pd_phase_name N1Ni2W3
_cell_length_a  6.6903419370
_cell_length_b  6.6903419370
_cell_length_c  6.6903419370
_cell_angle_alpha  90.0000000000
_cell_angle_beta  90.0000000000
_cell_angle_gamma  90.0000000000
_symmetry_space_group_name_H-M  'P1'
_symmetry_Int_Tables_Number  1
loop_
_symmetry_equiv_pos_site_id
_symmetry_equiv_pos_as_xyz
  1  x,y,z
loop_
 _atom_site_label
 _atom_site_occupancy
 _atom_site_fract_x
 _atom_site_fract_y
 _atom_site_fract_z
 _atom_site_thermal_displace_type
 _atom_site_B_iso_or_equiv
 _atom_site_type_symbol
N1 1.0000000000 0.6250000000 0.6250000000 0.3750000000  Biso 1.0 N
N2 1.0000000000 0.8750000000 0.3750000000 0.8750000000  Biso 1.0 N
N3 1.0000000000 0.3750000000 0.1250000000 0.1250000000  Biso 1.0 N
N4 1.0000000000 0.1250000000 0.8750000000 0.6250000000  Biso 1.0 N
Ni5 1.0000000000 0.9343968487 0.9343968487 0.0656031513  Biso 1.0 Ni
Ni6 1.0000000000 0.5656031513 0.0656031513 0.5656031513  Biso 1.0 Ni
Ni7 1.0000000000 0.0656031513 0.4343968487 0.4343968487  Biso 1.0 Ni
Ni8 1.0000000000 0.4343968487 0.5656031513 0.9343968487  Biso 1.0 Ni
Ni9 1.0000000000 0.1843968487 0.6843968487 0.1843968487  Biso 1.0 Ni
Ni10 1.0000000000 0.3156031513 0.3156031513 0.6843968487  Biso 1.0 Ni
Ni11 1.0000000000 0.6843968487 0.8156031513 0.8156031513  Biso 1.0 Ni
Ni12 1.0000000000 0.8156031513 0.1843968487 0.3156031513  Biso 1.0 Ni
W13 1.0000000000 0.8000174797 0.5500174797 0.1250000000  Biso 1.0 W
W14 1.0000000000 0.6999825203 0.4499825203 0.6250000000  Biso 1.0 W
W15 1.0000000000 0.1999825203 0.0500174797 0.3750000000  Biso 1.0 W
W16 1.0000000000 0.3000174797 0.9499825203 0.8750000000  Biso 1.0 W
W17 1.0000000000 0.8750000000 0.8000174797 0.4499825203  Biso 1.0 W
W18 1.0000000000 0.3750000000 0.6999825203 0.5500174797  Biso 1.0 W
W19 1.0000000000 0.6250000000 0.1999825203 0.9499825203  Biso 1.0 W
W20 1.0000000000 0.1250000000 0.3000174797 0.0500174797  Biso 1.0 W
W21 1.0000000000 0.5500174797 0.8750000000 0.1999825203  Biso 1.0 W
W22 1.0000000000 0.4499825203 0.3750000000 0.3000174797  Biso 1.0 W
W23 1.0000000000 0.0500174797 0.6250000000 0.8000174797  Biso 1.0 W
W24 1.0000000000 0.9499825203 0.1250000000 0.6999825203  Biso 1.0 W
