# AFLOW.org Repositories
# N1Ni2Ta4   [FCC,FCC,cF112] (STD_PRIM doi
data_N1Ni2Ta4
_pd_phase_name N1Ni2Ta4
_cell_length_a  8.2518784765
_cell_length_b  8.2518784765
_cell_length_c  8.2518784765
_cell_angle_alpha  60.0000000000
_cell_angle_beta  60.0000000000
_cell_angle_gamma  60.0000000000
_symmetry_space_group_name_H-M  'P1'
_symmetry_Int_Tables_Number  1
loop_
_symmetry_equiv_pos_site_id
_symmetry_equiv_pos_as_xyz
  1  x,y,z
loop_
 _atom_site_label
 _atom_site_occupancy
 _atom_site_fract_x
 _atom_site_fract_y
 _atom_site_fract_z
 _atom_site_thermal_displace_type
 _atom_site_B_iso_or_equiv
 _atom_site_type_symbol
N1 1.0000000000 0.5000000000 0.5000000000 0.5000000000  Biso 1.0 N
N2 1.0000000000 0.5000000000 0.0000000000 0.5000000000  Biso 1.0 N
N3 1.0000000000 0.0000000000 0.5000000000 0.5000000000  Biso 1.0 N
N4 1.0000000000 0.5000000000 0.5000000000 0.0000000000  Biso 1.0 N
Ni5 1.0000000000 0.2052134214 0.2052134214 0.2052134214  Biso 1.0 Ni
Ni6 1.0000000000 0.2052134214 0.8843597359 0.2052134214  Biso 1.0 Ni
Ni7 1.0000000000 0.8843597359 0.2052134214 0.2052134214  Biso 1.0 Ni
Ni8 1.0000000000 0.2052134214 0.2052134214 0.8843597359  Biso 1.0 Ni
Ni9 1.0000000000 0.7947865786 0.1156402641 0.7947865786  Biso 1.0 Ni
Ni10 1.0000000000 0.7947865786 0.7947865786 0.7947865786  Biso 1.0 Ni
Ni11 1.0000000000 0.1156402641 0.7947865786 0.7947865786  Biso 1.0 Ni
Ni12 1.0000000000 0.7947865786 0.7947865786 0.1156402641  Biso 1.0 Ni
Ta13 1.0000000000 0.0000000000 0.0000000000 0.0000000000  Biso 1.0 Ta
Ta14 1.0000000000 0.0000000000 0.5000000000 0.0000000000  Biso 1.0 Ta
Ta15 1.0000000000 0.5000000000 0.0000000000 0.0000000000  Biso 1.0 Ta
Ta16 1.0000000000 0.0000000000 0.0000000000 0.5000000000  Biso 1.0 Ta
Ta17 1.0000000000 0.4413779481 0.4413779481 0.8086220519  Biso 1.0 Ta
Ta18 1.0000000000 0.8086220519 0.8086220519 0.4413779481  Biso 1.0 Ta
Ta19 1.0000000000 0.8086220519 0.4413779481 0.4413779481  Biso 1.0 Ta
Ta20 1.0000000000 0.4413779481 0.8086220519 0.8086220519  Biso 1.0 Ta
Ta21 1.0000000000 0.4413779481 0.8086220519 0.4413779481  Biso 1.0 Ta
Ta22 1.0000000000 0.8086220519 0.4413779481 0.8086220519  Biso 1.0 Ta
Ta23 1.0000000000 0.5586220519 0.1913779481 0.1913779481  Biso 1.0 Ta
Ta24 1.0000000000 0.1913779481 0.5586220519 0.5586220519  Biso 1.0 Ta
Ta25 1.0000000000 0.1913779481 0.1913779481 0.5586220519  Biso 1.0 Ta
Ta26 1.0000000000 0.5586220519 0.5586220519 0.1913779481  Biso 1.0 Ta
Ta27 1.0000000000 0.5586220519 0.1913779481 0.5586220519  Biso 1.0 Ta
Ta28 1.0000000000 0.1913779481 0.5586220519 0.1913779481  Biso 1.0 Ta
