# AFLOW.org Repositories
# N1Rh2Zr4   [FCC,FCC,cF112] (STD_PRIM doi
data_N1Rh2Zr4
_pd_phase_name N1Rh2Zr4
_cell_length_a  8.8061390428
_cell_length_b  8.8061390428
_cell_length_c  8.8061390428
_cell_angle_alpha  60.0000000000
_cell_angle_beta  60.0000000000
_cell_angle_gamma  60.0000000000
_symmetry_space_group_name_H-M  'P1'
_symmetry_Int_Tables_Number  1
loop_
_symmetry_equiv_pos_site_id
_symmetry_equiv_pos_as_xyz
  1  x,y,z
loop_
 _atom_site_label
 _atom_site_occupancy
 _atom_site_fract_x
 _atom_site_fract_y
 _atom_site_fract_z
 _atom_site_thermal_displace_type
 _atom_site_B_iso_or_equiv
 _atom_site_type_symbol
N1 1.0000000000 0.5000000000 0.5000000000 0.5000000000  Biso 1.0 N
N2 1.0000000000 0.0000000000 0.5000000000 0.0000000000  Biso 1.0 N
N3 1.0000000000 0.5000000000 0.0000000000 0.0000000000  Biso 1.0 N
N4 1.0000000000 0.5000000000 0.5000000000 0.0000000000  Biso 1.0 N
Rh5 1.0000000000 0.2170995412 0.2170995412 0.3487013763  Biso 1.0 Rh
Rh6 1.0000000000 0.8487013763 0.2170995412 0.7170995412  Biso 1.0 Rh
Rh7 1.0000000000 0.2170995412 0.8487013763 0.7170995412  Biso 1.0 Rh
Rh8 1.0000000000 0.2170995412 0.2170995412 0.7170995412  Biso 1.0 Rh
Rh9 1.0000000000 0.1512986237 0.7829004588 0.2829004588  Biso 1.0 Rh
Rh10 1.0000000000 0.7829004588 0.7829004588 0.6512986237  Biso 1.0 Rh
Rh11 1.0000000000 0.7829004588 0.1512986237 0.2829004588  Biso 1.0 Rh
Rh12 1.0000000000 0.7829004588 0.7829004588 0.2829004588  Biso 1.0 Rh
Zr13 1.0000000000 0.0000000000 0.0000000000 0.0000000000  Biso 1.0 Zr
Zr14 1.0000000000 0.5000000000 0.0000000000 0.5000000000  Biso 1.0 Zr
Zr15 1.0000000000 0.0000000000 0.5000000000 0.5000000000  Biso 1.0 Zr
Zr16 1.0000000000 0.0000000000 0.0000000000 0.5000000000  Biso 1.0 Zr
Zr17 1.0000000000 0.4425762506 0.4425762506 0.3074237494  Biso 1.0 Zr
Zr18 1.0000000000 0.8074237494 0.8074237494 0.9425762506  Biso 1.0 Zr
Zr19 1.0000000000 0.4425762506 0.8074237494 0.3074237494  Biso 1.0 Zr
Zr20 1.0000000000 0.8074237494 0.4425762506 0.9425762506  Biso 1.0 Zr
Zr21 1.0000000000 0.8074237494 0.4425762506 0.3074237494  Biso 1.0 Zr
Zr22 1.0000000000 0.4425762506 0.8074237494 0.9425762506  Biso 1.0 Zr
Zr23 1.0000000000 0.1925762506 0.5574237494 0.0574237494  Biso 1.0 Zr
Zr24 1.0000000000 0.5574237494 0.1925762506 0.6925762506  Biso 1.0 Zr
Zr25 1.0000000000 0.1925762506 0.1925762506 0.0574237494  Biso 1.0 Zr
Zr26 1.0000000000 0.5574237494 0.5574237494 0.6925762506  Biso 1.0 Zr
Zr27 1.0000000000 0.1925762506 0.5574237494 0.6925762506  Biso 1.0 Zr
Zr28 1.0000000000 0.5574237494 0.1925762506 0.0574237494  Biso 1.0 Zr
