# AFLOW.org Repositories
# N1Tc2   [HEX,HEX,hP6] (STD_PRIM doi:10.1
data_N1Tc2
_pd_phase_name N1Tc2
_cell_length_a  2.8520140970
_cell_length_b  2.8520140970
_cell_length_c  9.7552182906
_cell_angle_alpha  90.0000000000
_cell_angle_beta  90.0000000000
_cell_angle_gamma  120.0000000000
_symmetry_space_group_name_H-M  'P1'
_symmetry_Int_Tables_Number  1
loop_
_symmetry_equiv_pos_site_id
_symmetry_equiv_pos_as_xyz
  1  x,y,z
loop_
 _atom_site_label
 _atom_site_occupancy
 _atom_site_fract_x
 _atom_site_fract_y
 _atom_site_fract_z
 _atom_site_thermal_displace_type
 _atom_site_B_iso_or_equiv
 _atom_site_type_symbol
N1 1.0000000000 0.3333661373 0.6666830687 0.7500000000  Biso 1.0 N
N2 1.0000000000 0.6666338627 0.3333169313 0.2500000000  Biso 1.0 N
Tc3 1.0000000000 0.3333639929 0.6666819964 0.1079503571  Biso 1.0 Tc
Tc4 1.0000000000 0.6666360071 0.3333180036 0.6079503571  Biso 1.0 Tc
Tc5 1.0000000000 0.6666360071 0.3333180036 0.8920496429  Biso 1.0 Tc
Tc6 1.0000000000 0.3333639929 0.6666819964 0.3920496429  Biso 1.0 Tc
