# AFLOW.org Repositories
# N1Tl1   [HEX,HEX,hP4] (STD_PRIM doi:10.1
data_N1Tl1
_pd_phase_name N1Tl1
_cell_length_a  3.7358092821
_cell_length_b  3.7358092821
_cell_length_c  6.0595948153
_cell_angle_alpha  90.0000000000
_cell_angle_beta  90.0000000000
_cell_angle_gamma  120.0000000000
_symmetry_space_group_name_H-M  'P1'
_symmetry_Int_Tables_Number  1
loop_
_symmetry_equiv_pos_site_id
_symmetry_equiv_pos_as_xyz
  1  x,y,z
loop_
 _atom_site_label
 _atom_site_occupancy
 _atom_site_fract_x
 _atom_site_fract_y
 _atom_site_fract_z
 _atom_site_thermal_displace_type
 _atom_site_B_iso_or_equiv
 _atom_site_type_symbol
N1 1.0000000000 0.3333162275 0.6666837725 0.3780185908  Biso 1.0 N
N2 1.0000000000 0.6666837725 0.3333162275 0.8780185908  Biso 1.0 N
Tl3 1.0000000000 0.3333154386 0.6666845614 0.0000000000  Biso 1.0 Tl
Tl4 1.0000000000 0.6666845614 0.3333154386 0.4999814092  Biso 1.0 Tl
