# AFLOW.org Repositories
# N2Pt1   [CUB,CUB,cP12] (STD_PRIM doi:10.
data_N2Pt1
_pd_phase_name N2Pt1
_cell_length_a  4.8529519382
_cell_length_b  4.8529519382
_cell_length_c  4.8529519382
_cell_angle_alpha  90.0000000000
_cell_angle_beta  90.0000000000
_cell_angle_gamma  90.0000000000
_symmetry_space_group_name_H-M  'P1'
_symmetry_Int_Tables_Number  1
loop_
_symmetry_equiv_pos_site_id
_symmetry_equiv_pos_as_xyz
  1  x,y,z
loop_
 _atom_site_label
 _atom_site_occupancy
 _atom_site_fract_x
 _atom_site_fract_y
 _atom_site_fract_z
 _atom_site_thermal_displace_type
 _atom_site_B_iso_or_equiv
 _atom_site_type_symbol
N1 1.0000000000 0.5837723672 0.5837723672 0.4162276328  Biso 1.0 N
N2 1.0000000000 0.9162276328 0.4162276328 0.9162276328  Biso 1.0 N
N3 1.0000000000 0.4162276328 0.0837723672 0.0837723672  Biso 1.0 N
N4 1.0000000000 0.0837723672 0.9162276328 0.5837723672  Biso 1.0 N
N5 1.0000000000 0.4162276328 0.4162276328 0.5837723672  Biso 1.0 N
N6 1.0000000000 0.0837723672 0.5837723672 0.0837723672  Biso 1.0 N
N7 1.0000000000 0.5837723672 0.9162276328 0.9162276328  Biso 1.0 N
N8 1.0000000000 0.9162276328 0.0837723672 0.4162276328  Biso 1.0 N
Pt9 1.0000000000 0.0000000000 0.0000000000 0.0000000000  Biso 1.0 Pt
Pt10 1.0000000000 0.5000000000 0.0000000000 0.5000000000  Biso 1.0 Pt
Pt11 1.0000000000 0.0000000000 0.5000000000 0.5000000000  Biso 1.0 Pt
Pt12 1.0000000000 0.5000000000 0.5000000000 0.0000000000  Biso 1.0 Pt
