# AFLOW.org Repositories
# N2Re1   [ORC,ORC,oP12] (STD_PRIM doi:10.
data_N2Re1
_pd_phase_name N2Re1
_cell_length_a  2.9135613697
_cell_length_b  4.9839849515
_cell_length_c  7.8743806200
_cell_angle_alpha  90.0000000000
_cell_angle_beta  90.0000000000
_cell_angle_gamma  90.0000000000
_symmetry_space_group_name_H-M  'P1'
_symmetry_Int_Tables_Number  1
loop_
_symmetry_equiv_pos_site_id
_symmetry_equiv_pos_as_xyz
  1  x,y,z
loop_
 _atom_site_label
 _atom_site_occupancy
 _atom_site_fract_x
 _atom_site_fract_y
 _atom_site_fract_z
 _atom_site_thermal_displace_type
 _atom_site_B_iso_or_equiv
 _atom_site_type_symbol
N1 1.0000000000 0.7920042365 0.0801874316 0.7562868204  Biso 1.0 N
N2 1.0000000000 0.2079957635 0.9198125684 0.2562868204  Biso 1.0 N
N3 1.0000000000 0.2079957635 0.5801874316 0.7562868204  Biso 1.0 N
N4 1.0000000000 0.7920042365 0.4198125684 0.2562868204  Biso 1.0 N
N5 1.0000000000 0.7920042365 0.0801874316 0.5837131796  Biso 1.0 N
N6 1.0000000000 0.2079957635 0.9198125684 0.0837131796  Biso 1.0 N
N7 1.0000000000 0.2079957635 0.5801874316 0.5837131796  Biso 1.0 N
N8 1.0000000000 0.7920042365 0.4198125684 0.0837131796  Biso 1.0 N
Re9 1.0000000000 0.2978324709 0.2500000000 0.9200000000  Biso 1.0 Re
Re10 1.0000000000 0.7021675291 0.7500000000 0.4200000000  Biso 1.0 Re
Re11 1.0000000000 0.7021675291 0.7500000000 0.9200000000  Biso 1.0 Re
Re12 1.0000000000 0.2978324709 0.2500000000 0.4200000000  Biso 1.0 Re
