# AFLOW.org Repositories
# N2S1Zr2   [HEX,HEX,hP10] (STD_PRIM doi:1
data_N2S1Zr2
_pd_phase_name N2S1Zr2
_cell_length_a  3.6482334749
_cell_length_b  3.6482334749
_cell_length_c  12.9072814321
_cell_angle_alpha  90.0000000000
_cell_angle_beta  90.0000000000
_cell_angle_gamma  120.0000000000
_symmetry_space_group_name_H-M  'P1'
_symmetry_Int_Tables_Number  1
loop_
_symmetry_equiv_pos_site_id
_symmetry_equiv_pos_as_xyz
  1  x,y,z
loop_
 _atom_site_label
 _atom_site_occupancy
 _atom_site_fract_x
 _atom_site_fract_y
 _atom_site_fract_z
 _atom_site_thermal_displace_type
 _atom_site_B_iso_or_equiv
 _atom_site_type_symbol
N1 1.0000000000 0.3333368415 0.6666684208 0.0683737198  Biso 1.0 N
N2 1.0000000000 0.6666631585 0.3333315792 0.5683737198  Biso 1.0 N
N3 1.0000000000 0.6666631585 0.3333315792 0.9316262802  Biso 1.0 N
N4 1.0000000000 0.3333368415 0.6666684208 0.4316262802  Biso 1.0 N
S5 1.0000000000 0.0000000000 0.0000000000 0.2500000000  Biso 1.0 S
S6 1.0000000000 0.0000000000 0.0000000000 0.7500000000  Biso 1.0 S
Zr7 1.0000000000 0.3333313462 0.6666656731 0.8975365461  Biso 1.0 Zr
Zr8 1.0000000000 0.6666686538 0.3333343269 0.3975365461  Biso 1.0 Zr
Zr9 1.0000000000 0.6666686538 0.3333343269 0.1024634539  Biso 1.0 Zr
Zr10 1.0000000000 0.3333313462 0.6666656731 0.6024634539  Biso 1.0 Zr
