# AFLOW.org Repositories
# N2Sb1Th2   [BCT,BCT2,tI10] (STD_PRIM doi
data_N2Sb1Th2
_pd_phase_name N2Sb1Th2
_cell_length_a  7.6564313764
_cell_length_b  7.6564313764
_cell_length_c  7.6564313764
_cell_angle_alpha  148.1777468777
_cell_angle_beta  148.1777468777
_cell_angle_gamma  45.6230438998
_symmetry_space_group_name_H-M  'P1'
_symmetry_Int_Tables_Number  1
loop_
_symmetry_equiv_pos_site_id
_symmetry_equiv_pos_as_xyz
  1  x,y,z
loop_
 _atom_site_label
 _atom_site_occupancy
 _atom_site_fract_x
 _atom_site_fract_y
 _atom_site_fract_z
 _atom_site_thermal_displace_type
 _atom_site_B_iso_or_equiv
 _atom_site_type_symbol
N1 1.0000000000 0.2500000000 0.7500000000 0.5000000000  Biso 1.0 N
N2 1.0000000000 0.7500000000 0.2500000000 0.5000000000  Biso 1.0 N
Sb3 1.0000000000 0.0000000000 0.0000000000 0.0000000000  Biso 1.0 Sb
Th4 1.0000000000 0.6641151427 0.6641151427 0.0000000000  Biso 1.0 Th
Th5 1.0000000000 0.3358848573 0.3358848573 0.0000000000  Biso 1.0 Th
