# AFLOW.org Repositories
# N2Se1Th2   [HEX,HEX,hP5] (STD_PRIM doi:1
data_N2Se1Th2
_pd_phase_name N2Se1Th2
_cell_length_a  4.1738097457
_cell_length_b  4.1738097457
_cell_length_c  7.3714791604
_cell_angle_alpha  90.0000000000
_cell_angle_beta  90.0000000000
_cell_angle_gamma  120.0000000000
_symmetry_space_group_name_H-M  'P1'
_symmetry_Int_Tables_Number  1
loop_
_symmetry_equiv_pos_site_id
_symmetry_equiv_pos_as_xyz
  1  x,y,z
loop_
 _atom_site_label
 _atom_site_occupancy
 _atom_site_fract_x
 _atom_site_fract_y
 _atom_site_fract_z
 _atom_site_thermal_displace_type
 _atom_site_B_iso_or_equiv
 _atom_site_type_symbol
N1 1.0000000000 0.3333435014 0.6666717507 0.6306809636  Biso 1.0 N
N2 1.0000000000 0.6666564986 0.3333282493 0.3693190364  Biso 1.0 N
Se3 1.0000000000 0.0000000000 0.0000000000 0.0000000000  Biso 1.0 Se
Th4 1.0000000000 0.3333421513 0.6666710756 0.2938888839  Biso 1.0 Th
Th5 1.0000000000 0.6666578487 0.3333289244 0.7061111161  Biso 1.0 Th
