# AFLOW.org Repositories
# N2Se1Zr2   [HEX,HEX,hP10] (STD_PRIM doi:
data_N2Se1Zr2
_pd_phase_name N2Se1Zr2
_cell_length_a  3.6817090174
_cell_length_b  3.6817090174
_cell_length_c  13.3354937821
_cell_angle_alpha  90.0000000000
_cell_angle_beta  90.0000000000
_cell_angle_gamma  120.0000000000
_symmetry_space_group_name_H-M  'P1'
_symmetry_Int_Tables_Number  1
loop_
_symmetry_equiv_pos_site_id
_symmetry_equiv_pos_as_xyz
  1  x,y,z
loop_
 _atom_site_label
 _atom_site_occupancy
 _atom_site_fract_x
 _atom_site_fract_y
 _atom_site_fract_z
 _atom_site_thermal_displace_type
 _atom_site_B_iso_or_equiv
 _atom_site_type_symbol
N1 1.0000000000 0.3333400993 0.6666700497 0.0665118762  Biso 1.0 N
N2 1.0000000000 0.6666599007 0.3333299503 0.5665118762  Biso 1.0 N
N3 1.0000000000 0.6666599007 0.3333299503 0.9334881238  Biso 1.0 N
N4 1.0000000000 0.3333400993 0.6666700497 0.4334881238  Biso 1.0 N
Se5 1.0000000000 0.0000000000 0.0000000000 0.2500000000  Biso 1.0 Se
Se6 1.0000000000 0.0000000000 0.0000000000 0.7500000000  Biso 1.0 Se
Zr7 1.0000000000 0.3333425143 0.6666712571 0.9016437047  Biso 1.0 Zr
Zr8 1.0000000000 0.6666574857 0.3333287429 0.4016437047  Biso 1.0 Zr
Zr9 1.0000000000 0.6666574857 0.3333287429 0.0983562953  Biso 1.0 Zr
Zr10 1.0000000000 0.3333425143 0.6666712571 0.5983562953  Biso 1.0 Zr
