# AFLOW.org Repositories
# N2Sr1Ti1   [TET,TET,tP8] (STD_PRIM doi:1
data_N2Sr1Ti1
_pd_phase_name N2Sr1Ti1
_cell_length_a  3.9323633344
_cell_length_b  3.9323633344
_cell_length_c  7.8392713367
_cell_angle_alpha  90.0000000000
_cell_angle_beta  90.0000000000
_cell_angle_gamma  90.0000000000
_symmetry_space_group_name_H-M  'P1'
_symmetry_Int_Tables_Number  1
loop_
_symmetry_equiv_pos_site_id
_symmetry_equiv_pos_as_xyz
  1  x,y,z
loop_
 _atom_site_label
 _atom_site_occupancy
 _atom_site_fract_x
 _atom_site_fract_y
 _atom_site_fract_z
 _atom_site_thermal_displace_type
 _atom_site_B_iso_or_equiv
 _atom_site_type_symbol
N1 1.0000000000 0.7500000000 0.2500000000 0.5000000000  Biso 1.0 N
N2 1.0000000000 0.2500000000 0.7500000000 0.5000000000  Biso 1.0 N
N3 1.0000000000 0.2500000000 0.2500000000 0.1732818154  Biso 1.0 N
N4 1.0000000000 0.7500000000 0.7500000000 0.8267181846  Biso 1.0 N
Sr5 1.0000000000 0.2500000000 0.2500000000 0.8428305739  Biso 1.0 Sr
Sr6 1.0000000000 0.7500000000 0.7500000000 0.1571694261  Biso 1.0 Sr
Ti7 1.0000000000 0.2500000000 0.2500000000 0.4124522930  Biso 1.0 Ti
Ti8 1.0000000000 0.7500000000 0.7500000000 0.5875477070  Biso 1.0 Ti
