# AFLOW.org Repositories
# N2Ta1   [HEX,HEX,hP6] (STD_PRIM doi:10.1
data_N2Ta1
_pd_phase_name N2Ta1
_cell_length_a  3.0994490005
_cell_length_b  3.0994490005
_cell_length_c  7.7580698689
_cell_angle_alpha  90.0000000000
_cell_angle_beta  90.0000000000
_cell_angle_gamma  120.0000000000
_symmetry_space_group_name_H-M  'P1'
_symmetry_Int_Tables_Number  1
loop_
_symmetry_equiv_pos_site_id
_symmetry_equiv_pos_as_xyz
  1  x,y,z
loop_
 _atom_site_label
 _atom_site_occupancy
 _atom_site_fract_x
 _atom_site_fract_y
 _atom_site_fract_z
 _atom_site_thermal_displace_type
 _atom_site_B_iso_or_equiv
 _atom_site_type_symbol
N1 1.0000000000 0.0000000000 0.0000000000 0.0910088100  Biso 1.0 N
N2 1.0000000000 0.0000000000 0.0000000000 0.5910088100  Biso 1.0 N
N3 1.0000000000 0.0000000000 0.0000000000 0.9089911900  Biso 1.0 N
N4 1.0000000000 0.0000000000 0.0000000000 0.4089911900  Biso 1.0 N
Ta5 1.0000000000 0.3333219924 0.6666439847 0.2500000000  Biso 1.0 Ta
Ta6 1.0000000000 0.6666780076 0.3333560153 0.7500000000  Biso 1.0 Ta
