# AFLOW.org Repositories
# N2Te1Th2   [BCT,BCT2,tI10] (STD_PRIM doi
data_N2Te1Th2
_pd_phase_name N2Te1Th2
_cell_length_a  7.3842530484
_cell_length_b  7.3842530484
_cell_length_c  7.3842530484
_cell_angle_alpha  146.5871084990
_cell_angle_beta  146.5871084990
_cell_angle_gamma  47.9755269359
_symmetry_space_group_name_H-M  'P1'
_symmetry_Int_Tables_Number  1
loop_
_symmetry_equiv_pos_site_id
_symmetry_equiv_pos_as_xyz
  1  x,y,z
loop_
 _atom_site_label
 _atom_site_occupancy
 _atom_site_fract_x
 _atom_site_fract_y
 _atom_site_fract_z
 _atom_site_thermal_displace_type
 _atom_site_B_iso_or_equiv
 _atom_site_type_symbol
N1 1.0000000000 0.2500000000 0.7500000000 0.5000000000  Biso 1.0 N
N2 1.0000000000 0.7500000000 0.2500000000 0.5000000000  Biso 1.0 N
Te3 1.0000000000 0.0000000000 0.0000000000 0.0000000000  Biso 1.0 Te
Th4 1.0000000000 0.6618942416 0.6618942416 0.0000000000  Biso 1.0 Th
Th5 1.0000000000 0.3381057584 0.3381057584 0.0000000000  Biso 1.0 Th
