# AFLOW.org Repositories
# N3Rh1   [BCC,BCC,cI32] (STD_PRIM doi:10.
data_N3Rh1
_pd_phase_name N3Rh1
_cell_length_a  5.7298327692
_cell_length_b  5.7298327692
_cell_length_c  5.7298327692
_cell_angle_alpha  109.4712206345
_cell_angle_beta  109.4712206345
_cell_angle_gamma  109.4712206345
_symmetry_space_group_name_H-M  'P1'
_symmetry_Int_Tables_Number  1
loop_
_symmetry_equiv_pos_site_id
_symmetry_equiv_pos_as_xyz
  1  x,y,z
loop_
 _atom_site_label
 _atom_site_occupancy
 _atom_site_fract_x
 _atom_site_fract_y
 _atom_site_fract_z
 _atom_site_thermal_displace_type
 _atom_site_B_iso_or_equiv
 _atom_site_type_symbol
N1 1.0000000000 0.3851215368 0.8898410053 0.2749625422  Biso 1.0 N
N2 1.0000000000 0.6148784632 0.8898410053 0.5047194685  Biso 1.0 N
N3 1.0000000000 0.3851215368 0.1101589947 0.4952805315  Biso 1.0 N
N4 1.0000000000 0.6148784632 0.1101589947 0.7250374578  Biso 1.0 N
N5 1.0000000000 0.1101589947 0.7250374578 0.6148784632  Biso 1.0 N
N6 1.0000000000 0.1101589947 0.4952805315 0.3851215368  Biso 1.0 N
N7 1.0000000000 0.8898410053 0.5047194685 0.6148784632  Biso 1.0 N
N8 1.0000000000 0.8898410053 0.2749625422 0.3851215368  Biso 1.0 N
N9 1.0000000000 0.4952805315 0.3851215368 0.1101589947  Biso 1.0 N
N10 1.0000000000 0.7250374578 0.6148784632 0.1101589947  Biso 1.0 N
N11 1.0000000000 0.2749625422 0.3851215368 0.8898410053  Biso 1.0 N
N12 1.0000000000 0.5047194685 0.6148784632 0.8898410053  Biso 1.0 N
Rh13 1.0000000000 0.5000000000 0.0000000000 0.0000000000  Biso 1.0 Rh
Rh14 1.0000000000 0.5000000000 0.5000000000 0.5000000000  Biso 1.0 Rh
Rh15 1.0000000000 0.0000000000 0.0000000000 0.5000000000  Biso 1.0 Rh
Rh16 1.0000000000 0.0000000000 0.5000000000 0.0000000000  Biso 1.0 Rh
