# AFLOW.org Repositories
# N3V2   [HEX,HEX,hP5] (STD_PRIM doi:10.10
data_N3V2
_pd_phase_name N3V2
_cell_length_a  2.8577270711
_cell_length_b  2.8577270711
_cell_length_c  6.2737263276
_cell_angle_alpha  90.0000000000
_cell_angle_beta  90.0000000000
_cell_angle_gamma  120.0000000000
_symmetry_space_group_name_H-M  'P1'
_symmetry_Int_Tables_Number  1
loop_
_symmetry_equiv_pos_site_id
_symmetry_equiv_pos_as_xyz
  1  x,y,z
loop_
 _atom_site_label
 _atom_site_occupancy
 _atom_site_fract_x
 _atom_site_fract_y
 _atom_site_fract_z
 _atom_site_thermal_displace_type
 _atom_site_B_iso_or_equiv
 _atom_site_type_symbol
N1 1.0000000000 0.0000000000 0.0000000000 0.5000000000  Biso 1.0 N
N2 1.0000000000 0.0000000000 0.0000000000 0.8926441921  Biso 1.0 N
N3 1.0000000000 0.0000000000 0.0000000000 0.1073558079  Biso 1.0 N
V4 1.0000000000 0.6666781263 0.3333562526 0.7014484830  Biso 1.0 V
V5 1.0000000000 0.3333218737 0.6666437474 0.2985515170  Biso 1.0 V
