# AFLOW.org Repositories
# N4Si3   [HEX,HEX,hP14] (STD_PRIM doi:10.
data_N4Si3
_pd_phase_name N4Si3
_cell_length_a  7.6616409094
_cell_length_b  7.6616409094
_cell_length_c  2.9258306950
_cell_angle_alpha  90.0000000000
_cell_angle_beta  90.0000000000
_cell_angle_gamma  120.0000000000
_symmetry_space_group_name_H-M  'P1'
_symmetry_Int_Tables_Number  1
loop_
_symmetry_equiv_pos_site_id
_symmetry_equiv_pos_as_xyz
  1  x,y,z
loop_
 _atom_site_label
 _atom_site_occupancy
 _atom_site_fract_x
 _atom_site_fract_y
 _atom_site_fract_z
 _atom_site_thermal_displace_type
 _atom_site_B_iso_or_equiv
 _atom_site_type_symbol
N1 1.0000000000 0.0311954547 0.3300809810 0.3255150035  Biso 1.0 N
N2 1.0000000000 0.6699258416 0.7011250459 0.3255142291  Biso 1.0 N
N3 1.0000000000 0.2988709763 0.9687779087 0.3255140632  Biso 1.0 N
N4 1.0000000000 0.9688045453 0.6699190190 0.8255150035  Biso 1.0 N
N5 1.0000000000 0.3300741584 0.2988749541 0.8255142291  Biso 1.0 N
N6 1.0000000000 0.7011290237 0.0312220913 0.8255140632  Biso 1.0 N
N7 1.0000000000 0.3333203501 0.6666698911 0.8262762674  Biso 1.0 N
N8 1.0000000000 0.6666796499 0.3333301089 0.3262762674  Biso 1.0 N
Si9 1.0000000000 0.7693055772 0.1754056754 0.3255265657  Biso 1.0 Si
Si10 1.0000000000 0.8245710663 0.5939057141 0.3255265691  Biso 1.0 Si
Si11 1.0000000000 0.4060866697 0.2306966672 0.3255273020  Biso 1.0 Si
Si12 1.0000000000 0.2306944228 0.8245943246 0.8255265657  Biso 1.0 Si
Si13 1.0000000000 0.1754289337 0.4060942859 0.8255265691  Biso 1.0 Si
Si14 1.0000000000 0.5939133303 0.7693033328 0.8255273020  Biso 1.0 Si
