# AFLOW.org Repositories
# N4Si3   [BCC,BCC,cI28] (STD_PRIM doi:10.
data_N4Si3
_pd_phase_name N4Si3
_cell_length_a  5.6170591416
_cell_length_b  5.6170591416
_cell_length_c  5.6170591416
_cell_angle_alpha  109.4712206345
_cell_angle_beta  109.4712206345
_cell_angle_gamma  109.4712206345
_symmetry_space_group_name_H-M  'P1'
_symmetry_Int_Tables_Number  1
loop_
_symmetry_equiv_pos_site_id
_symmetry_equiv_pos_as_xyz
  1  x,y,z
loop_
 _atom_site_label
 _atom_site_occupancy
 _atom_site_fract_x
 _atom_site_fract_y
 _atom_site_fract_z
 _atom_site_thermal_displace_type
 _atom_site_B_iso_or_equiv
 _atom_site_type_symbol
N1 1.0000000000 0.5627427152 0.0000000000 0.0000000000  Biso 1.0 N
N2 1.0000000000 0.9372572848 0.4372572848 0.9372572848  Biso 1.0 N
N3 1.0000000000 0.5000000000 0.5000000000 0.5627427152  Biso 1.0 N
N4 1.0000000000 0.0000000000 0.0627427152 0.5000000000  Biso 1.0 N
N5 1.0000000000 0.0627427152 0.0000000000 0.0000000000  Biso 1.0 N
N6 1.0000000000 0.4372572848 0.9372572848 0.4372572848  Biso 1.0 N
N7 1.0000000000 0.0000000000 0.5627427152 0.5000000000  Biso 1.0 N
N8 1.0000000000 0.5000000000 0.5000000000 0.0627427152  Biso 1.0 N
Si9 1.0000000000 0.8750000000 0.6250000000 0.7500000000  Biso 1.0 Si
Si10 1.0000000000 0.6250000000 0.8750000000 0.2500000000  Biso 1.0 Si
Si11 1.0000000000 0.1250000000 0.2500000000 0.8750000000  Biso 1.0 Si
Si12 1.0000000000 0.3750000000 0.7500000000 0.6250000000  Biso 1.0 Si
Si13 1.0000000000 0.2500000000 0.1250000000 0.3750000000  Biso 1.0 Si
Si14 1.0000000000 0.7500000000 0.3750000000 0.1250000000  Biso 1.0 Si
