# AFLOW.org Repositories
# N4Sn3   [FCC,FCC,cF56] (STD_PRIM doi:10.
data_N4Sn3
_pd_phase_name N4Sn3
_cell_length_a  6.5852207456
_cell_length_b  6.5852207456
_cell_length_c  6.5852207456
_cell_angle_alpha  60.0000000000
_cell_angle_beta  60.0000000000
_cell_angle_gamma  60.0000000000
_symmetry_space_group_name_H-M  'P1'
_symmetry_Int_Tables_Number  1
loop_
_symmetry_equiv_pos_site_id
_symmetry_equiv_pos_as_xyz
  1  x,y,z
loop_
 _atom_site_label
 _atom_site_occupancy
 _atom_site_fract_x
 _atom_site_fract_y
 _atom_site_fract_z
 _atom_site_thermal_displace_type
 _atom_site_B_iso_or_equiv
 _atom_site_type_symbol
N1 1.0000000000 0.2594566908 0.2216299276 0.2594566908  Biso 1.0 N
N2 1.0000000000 0.2594566908 0.7594566908 0.7216299276  Biso 1.0 N
N3 1.0000000000 0.7216299276 0.7594566908 0.2594566908  Biso 1.0 N
N4 1.0000000000 0.2594566908 0.7594566908 0.2594566908  Biso 1.0 N
N5 1.0000000000 0.7405433092 0.2405433092 0.2783700724  Biso 1.0 N
N6 1.0000000000 0.7405433092 0.7783700724 0.7405433092  Biso 1.0 N
N7 1.0000000000 0.2783700724 0.2405433092 0.7405433092  Biso 1.0 N
N8 1.0000000000 0.7405433092 0.2405433092 0.7405433092  Biso 1.0 N
Sn9 1.0000000000 0.1250000000 0.6250000000 0.1250000000  Biso 1.0 Sn
Sn10 1.0000000000 0.8750000000 0.3750000000 0.8750000000  Biso 1.0 Sn
Sn11 1.0000000000 0.5000000000 0.5000000000 0.5000000000  Biso 1.0 Sn
Sn12 1.0000000000 0.5000000000 0.0000000000 0.0000000000  Biso 1.0 Sn
Sn13 1.0000000000 0.0000000000 0.0000000000 0.5000000000  Biso 1.0 Sn
Sn14 1.0000000000 0.5000000000 0.0000000000 0.5000000000  Biso 1.0 Sn
