# AFLOW.org Repositories
# Na1Nb1Se2   [HEX,HEX,hP8] (STD_PRIM doi:
data_Na1Nb1Se2
_pd_phase_name Na1Nb1Se2
_cell_length_a  3.5800136601
_cell_length_b  3.5800136601
_cell_length_c  15.0430258974
_cell_angle_alpha  90.0000000000
_cell_angle_beta  90.0000000000
_cell_angle_gamma  120.0000000000
_symmetry_space_group_name_H-M  'P1'
_symmetry_Int_Tables_Number  1
loop_
_symmetry_equiv_pos_site_id
_symmetry_equiv_pos_as_xyz
  1  x,y,z
loop_
 _atom_site_label
 _atom_site_occupancy
 _atom_site_fract_x
 _atom_site_fract_y
 _atom_site_fract_z
 _atom_site_thermal_displace_type
 _atom_site_B_iso_or_equiv
 _atom_site_type_symbol
Na1 1.0000000000 0.0000000000 0.0000000000 0.0000000000  Biso 1.0 Na
Na2 1.0000000000 0.0000000000 0.0000000000 0.5000000000  Biso 1.0 Na
Nb3 1.0000000000 0.0000000000 0.0000000000 0.2500000000  Biso 1.0 Nb
Nb4 1.0000000000 0.0000000000 0.0000000000 0.7500000000  Biso 1.0 Nb
Se5 1.0000000000 0.3333736520 0.6666868260 0.1400260268  Biso 1.0 Se
Se6 1.0000000000 0.6666263480 0.3333131740 0.6400260268  Biso 1.0 Se
Se7 1.0000000000 0.6666263480 0.3333131740 0.8599739732  Biso 1.0 Se
Se8 1.0000000000 0.3333736520 0.6666868260 0.3599739732  Biso 1.0 Se
