# AFLOW.org Repositories
# Na1Nb1O3   [TET,TET,tP10] (STD_PRIM doi:
data_Na1Nb1O3
_pd_phase_name Na1Nb1O3
_cell_length_a  5.5504847579
_cell_length_b  5.5504847579
_cell_length_c  3.9946883729
_cell_angle_alpha  90.0000000000
_cell_angle_beta  90.0000000000
_cell_angle_gamma  90.0000000000
_symmetry_space_group_name_H-M  'P1'
_symmetry_Int_Tables_Number  1
loop_
_symmetry_equiv_pos_site_id
_symmetry_equiv_pos_as_xyz
  1  x,y,z
loop_
 _atom_site_label
 _atom_site_occupancy
 _atom_site_fract_x
 _atom_site_fract_y
 _atom_site_fract_z
 _atom_site_thermal_displace_type
 _atom_site_B_iso_or_equiv
 _atom_site_type_symbol
Na1 1.0000000000 0.0000000000 0.5000000000 0.5000000000  Biso 1.0 Na
Na2 1.0000000000 0.5000000000 0.0000000000 0.5000000000  Biso 1.0 Na
Nb3 1.0000000000 0.0000000000 0.0000000000 0.0000000000  Biso 1.0 Nb
Nb4 1.0000000000 0.5000000000 0.5000000000 0.0000000000  Biso 1.0 Nb
O5 1.0000000000 0.0000000000 0.0000000000 0.5000000000  Biso 1.0 O
O6 1.0000000000 0.5000000000 0.5000000000 0.5000000000  Biso 1.0 O
O7 1.0000000000 0.2984380546 0.2015619454 0.0000000000  Biso 1.0 O
O8 1.0000000000 0.7015619454 0.7984380546 0.0000000000  Biso 1.0 O
O9 1.0000000000 0.7984380546 0.2984380546 0.0000000000  Biso 1.0 O
O10 1.0000000000 0.2015619454 0.7015619454 0.0000000000  Biso 1.0 O
