# AFLOW.org Repositories
# Na1O3Ta1   [TET,TET,tP10] (STD_PRIM doi:
data_Na1O3Ta1
_pd_phase_name Na1O3Ta1
_cell_length_a  5.5746391444
_cell_length_b  5.5746391444
_cell_length_c  3.9998704375
_cell_angle_alpha  90.0000000000
_cell_angle_beta  90.0000000000
_cell_angle_gamma  90.0000000000
_symmetry_space_group_name_H-M  'P1'
_symmetry_Int_Tables_Number  1
loop_
_symmetry_equiv_pos_site_id
_symmetry_equiv_pos_as_xyz
  1  x,y,z
loop_
 _atom_site_label
 _atom_site_occupancy
 _atom_site_fract_x
 _atom_site_fract_y
 _atom_site_fract_z
 _atom_site_thermal_displace_type
 _atom_site_B_iso_or_equiv
 _atom_site_type_symbol
Na1 1.0000000000 0.0000000000 0.5000000000 0.5000000000  Biso 1.0 Na
Na2 1.0000000000 0.5000000000 0.0000000000 0.5000000000  Biso 1.0 Na
O3 1.0000000000 0.0000000000 0.0000000000 0.5000000000  Biso 1.0 O
O4 1.0000000000 0.5000000000 0.5000000000 0.5000000000  Biso 1.0 O
O5 1.0000000000 0.2955863487 0.2044136513 0.0000000000  Biso 1.0 O
O6 1.0000000000 0.7044136513 0.7955863487 0.0000000000  Biso 1.0 O
O7 1.0000000000 0.7955863487 0.2955863487 0.0000000000  Biso 1.0 O
O8 1.0000000000 0.2044136513 0.7044136513 0.0000000000  Biso 1.0 O
Ta9 1.0000000000 0.0000000000 0.0000000000 0.0000000000  Biso 1.0 Ta
Ta10 1.0000000000 0.5000000000 0.5000000000 0.0000000000  Biso 1.0 Ta
