# AFLOW.org Repositories
# Na1O3Sb1   [ORC,ORC,oP20] (STD_PRIM doi:
data_Na1O3Sb1
_pd_phase_name Na1O3Sb1
_cell_length_a  5.4763674697
_cell_length_b  5.5352932299
_cell_length_c  7.7922434335
_cell_angle_alpha  90.0000000000
_cell_angle_beta  90.0000000000
_cell_angle_gamma  90.0000000000
_symmetry_space_group_name_H-M  'P1'
_symmetry_Int_Tables_Number  1
loop_
_symmetry_equiv_pos_site_id
_symmetry_equiv_pos_as_xyz
  1  x,y,z
loop_
 _atom_site_label
 _atom_site_occupancy
 _atom_site_fract_x
 _atom_site_fract_y
 _atom_site_fract_z
 _atom_site_thermal_displace_type
 _atom_site_B_iso_or_equiv
 _atom_site_type_symbol
Na1 1.0000000000 0.4924735485 0.5382781354 0.7500000000  Biso 1.0 Na
Na2 1.0000000000 0.9924735485 0.9617218646 0.2500000000  Biso 1.0 Na
Na3 1.0000000000 0.5075264515 0.4617218646 0.2500000000  Biso 1.0 Na
Na4 1.0000000000 0.0075264515 0.0382781354 0.7500000000  Biso 1.0 Na
O5 1.0000000000 0.5891295837 0.9749274069 0.7500000000  Biso 1.0 O
O6 1.0000000000 0.0891295837 0.5250725931 0.2500000000  Biso 1.0 O
O7 1.0000000000 0.4108704163 0.0250725931 0.2500000000  Biso 1.0 O
O8 1.0000000000 0.9108704163 0.4749274069 0.7500000000  Biso 1.0 O
O9 1.0000000000 0.2976839109 0.2952681210 0.9541084586  Biso 1.0 O
O10 1.0000000000 0.7976839109 0.2047318790 0.0458915414  Biso 1.0 O
O11 1.0000000000 0.7023160891 0.7047318790 0.4541084586  Biso 1.0 O
O12 1.0000000000 0.2023160891 0.7952681210 0.5458915414  Biso 1.0 O
O13 1.0000000000 0.7023160891 0.7047318790 0.0458915414  Biso 1.0 O
O14 1.0000000000 0.2023160891 0.7952681210 0.9541084586  Biso 1.0 O
O15 1.0000000000 0.2976839109 0.2952681210 0.5458915414  Biso 1.0 O
O16 1.0000000000 0.7976839109 0.2047318790 0.4541084586  Biso 1.0 O
Sb17 1.0000000000 0.0000000000 0.5000000000 0.0000000000  Biso 1.0 Sb
Sb18 1.0000000000 0.5000000000 0.0000000000 0.0000000000  Biso 1.0 Sb
Sb19 1.0000000000 0.0000000000 0.5000000000 0.5000000000  Biso 1.0 Sb
Sb20 1.0000000000 0.5000000000 0.0000000000 0.5000000000  Biso 1.0 Sb
