# AFLOW.org Repositories
# Na2O4W1   [FCC,FCC,cF56] (STD_PRIM doi:1
data_Na2O4W1
_pd_phase_name Na2O4W1
_cell_length_a  6.5402652985
_cell_length_b  6.5402652985
_cell_length_c  6.5402652985
_cell_angle_alpha  60.0000000000
_cell_angle_beta  60.0000000000
_cell_angle_gamma  60.0000000000
_symmetry_space_group_name_H-M  'P1'
_symmetry_Int_Tables_Number  1
loop_
_symmetry_equiv_pos_site_id
_symmetry_equiv_pos_as_xyz
  1  x,y,z
loop_
 _atom_site_label
 _atom_site_occupancy
 _atom_site_fract_x
 _atom_site_fract_y
 _atom_site_fract_z
 _atom_site_thermal_displace_type
 _atom_site_B_iso_or_equiv
 _atom_site_type_symbol
Na1 1.0000000000 0.1250000000 0.6250000000 0.6250000000  Biso 1.0 Na
Na2 1.0000000000 0.6250000000 0.1250000000 0.6250000000  Biso 1.0 Na
Na3 1.0000000000 0.6250000000 0.6250000000 0.1250000000  Biso 1.0 Na
Na4 1.0000000000 0.6250000000 0.6250000000 0.6250000000  Biso 1.0 Na
O5 1.0000000000 0.9107139280 0.3630953573 0.3630953573  Biso 1.0 O
O6 1.0000000000 0.3630953573 0.9107139280 0.3630953573  Biso 1.0 O
O7 1.0000000000 0.3630953573 0.3630953573 0.9107139280  Biso 1.0 O
O8 1.0000000000 0.3630953573 0.3630953573 0.3630953573  Biso 1.0 O
O9 1.0000000000 0.8869046427 0.3392860720 0.8869046427  Biso 1.0 O
O10 1.0000000000 0.3392860720 0.8869046427 0.8869046427  Biso 1.0 O
O11 1.0000000000 0.8869046427 0.8869046427 0.3392860720  Biso 1.0 O
O12 1.0000000000 0.8869046427 0.8869046427 0.8869046427  Biso 1.0 O
W13 1.0000000000 0.0000000000 0.0000000000 0.0000000000  Biso 1.0 W
W14 1.0000000000 0.2500000000 0.2500000000 0.2500000000  Biso 1.0 W
