# AFLOW.org Repositories
# Na3P1   [HEX,HEX,hP8] (STD_PRIM doi:10.1
data_Na3P1
_pd_phase_name Na3P1
_cell_length_a  4.9342812272
_cell_length_b  4.9342812272
_cell_length_c  8.7839974195
_cell_angle_alpha  90.0000000000
_cell_angle_beta  90.0000000000
_cell_angle_gamma  120.0000000000
_symmetry_space_group_name_H-M  'P1'
_symmetry_Int_Tables_Number  1
loop_
_symmetry_equiv_pos_site_id
_symmetry_equiv_pos_as_xyz
  1  x,y,z
loop_
 _atom_site_label
 _atom_site_occupancy
 _atom_site_fract_x
 _atom_site_fract_y
 _atom_site_fract_z
 _atom_site_thermal_displace_type
 _atom_site_B_iso_or_equiv
 _atom_site_type_symbol
Na1 1.0000000000 0.0000000000 0.0000000000 0.2500000000  Biso 1.0 Na
Na2 1.0000000000 0.0000000000 0.0000000000 0.7500000000  Biso 1.0 Na
Na3 1.0000000000 0.6666936217 0.3333872435 0.5802558868  Biso 1.0 Na
Na4 1.0000000000 0.3333063783 0.6666127565 0.0802558868  Biso 1.0 Na
Na5 1.0000000000 0.3333063783 0.6666127565 0.4197441132  Biso 1.0 Na
Na6 1.0000000000 0.6666936217 0.3333872435 0.9197441132  Biso 1.0 Na
P7 1.0000000000 0.6666907973 0.3333815947 0.2500000000  Biso 1.0 P
P8 1.0000000000 0.3333092027 0.6666184053 0.7500000000  Biso 1.0 P
