# AFLOW.org Repositories
# Na3Sb1Se4   [BCC,BCC,cI16] (STD_PRIM doi
data_Na3Sb1Se4
_pd_phase_name Na3Sb1Se4
_cell_length_a  6.5398762162
_cell_length_b  6.5398762162
_cell_length_c  6.5398762162
_cell_angle_alpha  109.4712206345
_cell_angle_beta  109.4712206345
_cell_angle_gamma  109.4712206345
_symmetry_space_group_name_H-M  'P1'
_symmetry_Int_Tables_Number  1
loop_
_symmetry_equiv_pos_site_id
_symmetry_equiv_pos_as_xyz
  1  x,y,z
loop_
 _atom_site_label
 _atom_site_occupancy
 _atom_site_fract_x
 _atom_site_fract_y
 _atom_site_fract_z
 _atom_site_thermal_displace_type
 _atom_site_B_iso_or_equiv
 _atom_site_type_symbol
Na1 1.0000000000 0.0000000000 0.5000000000 0.5000000000  Biso 1.0 Na
Na2 1.0000000000 0.5000000000 0.0000000000 0.5000000000  Biso 1.0 Na
Na3 1.0000000000 0.5000000000 0.5000000000 0.0000000000  Biso 1.0 Na
Sb4 1.0000000000 0.0000000000 0.0000000000 0.0000000000  Biso 1.0 Sb
Se5 1.0000000000 0.0000000000 0.0000000000 0.6148190348  Biso 1.0 Se
Se6 1.0000000000 0.3851809652 0.3851809652 0.3851809652  Biso 1.0 Se
Se7 1.0000000000 0.6148190348 0.0000000000 0.0000000000  Biso 1.0 Se
Se8 1.0000000000 0.0000000000 0.6148190348 0.0000000000  Biso 1.0 Se
