# AFLOW.org Repositories
# Na3S3Sb1   [CUB,CUB,cP28] (STD_PRIM doi:
data_Na3S3Sb1
_pd_phase_name Na3S3Sb1
_cell_length_a  8.7087935508
_cell_length_b  8.7087935508
_cell_length_c  8.7087935508
_cell_angle_alpha  90.0000000000
_cell_angle_beta  90.0000000000
_cell_angle_gamma  90.0000000000
_symmetry_space_group_name_H-M  'P1'
_symmetry_Int_Tables_Number  1
loop_
_symmetry_equiv_pos_site_id
_symmetry_equiv_pos_as_xyz
  1  x,y,z
loop_
 _atom_site_label
 _atom_site_occupancy
 _atom_site_fract_x
 _atom_site_fract_y
 _atom_site_fract_z
 _atom_site_thermal_displace_type
 _atom_site_B_iso_or_equiv
 _atom_site_type_symbol
Na1 1.0000000000 0.9404300239 0.9404300239 0.0595699761  Biso 1.0 Na
Na2 1.0000000000 0.5595699761 0.0595699761 0.5595699761  Biso 1.0 Na
Na3 1.0000000000 0.0595699761 0.4404300239 0.4404300239  Biso 1.0 Na
Na4 1.0000000000 0.4404300239 0.5595699761 0.9404300239  Biso 1.0 Na
Na5 1.0000000000 0.4317944400 0.4317944400 0.5682055600  Biso 1.0 Na
Na6 1.0000000000 0.0682055600 0.5682055600 0.0682055600  Biso 1.0 Na
Na7 1.0000000000 0.5682055600 0.9317944400 0.9317944400  Biso 1.0 Na
Na8 1.0000000000 0.9317944400 0.0682055600 0.4317944400  Biso 1.0 Na
Na9 1.0000000000 0.1748365373 0.1748365373 0.8251634627  Biso 1.0 Na
Na10 1.0000000000 0.3251634627 0.8251634627 0.3251634627  Biso 1.0 Na
Na11 1.0000000000 0.8251634627 0.6748365373 0.6748365373  Biso 1.0 Na
Na12 1.0000000000 0.6748365373 0.3251634627 0.1748365373  Biso 1.0 Na
S13 1.0000000000 0.9848711504 0.7500383019 0.3590692706  Biso 1.0 S
S14 1.0000000000 0.5151288496 0.2499616981 0.8590692706  Biso 1.0 S
S15 1.0000000000 0.0151288496 0.2500383019 0.1409307294  Biso 1.0 S
S16 1.0000000000 0.4848711504 0.7499616981 0.6409307294  Biso 1.0 S
S17 1.0000000000 0.6409307294 0.9848711504 0.2499616981  Biso 1.0 S
S18 1.0000000000 0.1409307294 0.5151288496 0.7500383019  Biso 1.0 S
S19 1.0000000000 0.8590692706 0.0151288496 0.7499616981  Biso 1.0 S
S20 1.0000000000 0.3590692706 0.4848711504 0.2500383019  Biso 1.0 S
S21 1.0000000000 0.7500383019 0.6409307294 0.0151288496  Biso 1.0 S
S22 1.0000000000 0.2499616981 0.1409307294 0.4848711504  Biso 1.0 S
S23 1.0000000000 0.2500383019 0.8590692706 0.9848711504  Biso 1.0 S
S24 1.0000000000 0.7499616981 0.3590692706 0.5151288496  Biso 1.0 S
Sb25 1.0000000000 0.7141646358 0.7141646358 0.2858353642  Biso 1.0 Sb
Sb26 1.0000000000 0.7858353642 0.2858353642 0.7858353642  Biso 1.0 Sb
Sb27 1.0000000000 0.2858353642 0.2141646358 0.2141646358  Biso 1.0 Sb
Sb28 1.0000000000 0.2141646358 0.7858353642 0.7141646358  Biso 1.0 Sb
