# AFLOW.org Repositories
# Na8Sb4Sn1   [FCC,FCC,cF104] (STD_PRIM do
data_Na8Sb4Sn1
_pd_phase_name Na8Sb4Sn1
_cell_length_a  10.5105741964
_cell_length_b  10.5105741964
_cell_length_c  10.5105741964
_cell_angle_alpha  60.0000000000
_cell_angle_beta  60.0000000000
_cell_angle_gamma  60.0000000000
_symmetry_space_group_name_H-M  'P1'
_symmetry_Int_Tables_Number  1
loop_
_symmetry_equiv_pos_site_id
_symmetry_equiv_pos_as_xyz
  1  x,y,z
loop_
 _atom_site_label
 _atom_site_occupancy
 _atom_site_fract_x
 _atom_site_fract_y
 _atom_site_fract_z
 _atom_site_thermal_displace_type
 _atom_site_B_iso_or_equiv
 _atom_site_type_symbol
Na1 1.0000000000 0.8750000000 0.3750000000 0.8750000000  Biso 1.0 Na
Na2 1.0000000000 0.3750000000 0.8750000000 0.8750000000  Biso 1.0 Na
Na3 1.0000000000 0.8750000000 0.8750000000 0.3750000000  Biso 1.0 Na
Na4 1.0000000000 0.8750000000 0.8750000000 0.8750000000  Biso 1.0 Na
Na5 1.0000000000 0.7285435078 0.2714564922 0.7285435078  Biso 1.0 Na
Na6 1.0000000000 0.2714564922 0.7285435078 0.2714564922  Biso 1.0 Na
Na7 1.0000000000 0.7285435078 0.2714564922 0.2714564922  Biso 1.0 Na
Na8 1.0000000000 0.2714564922 0.7285435078 0.7285435078  Biso 1.0 Na
Na9 1.0000000000 0.2714564922 0.2714564922 0.7285435078  Biso 1.0 Na
Na10 1.0000000000 0.7285435078 0.7285435078 0.2714564922  Biso 1.0 Na
Na11 1.0000000000 0.4785435078 0.0214564922 0.0214564922  Biso 1.0 Na
Na12 1.0000000000 0.0214564922 0.4785435078 0.4785435078  Biso 1.0 Na
Na13 1.0000000000 0.4785435078 0.0214564922 0.4785435078  Biso 1.0 Na
Na14 1.0000000000 0.0214564922 0.4785435078 0.0214564922  Biso 1.0 Na
Na15 1.0000000000 0.4785435078 0.4785435078 0.0214564922  Biso 1.0 Na
Na16 1.0000000000 0.0214564922 0.0214564922 0.4785435078  Biso 1.0 Na
Sb17 1.0000000000 0.6374418391 0.0876744827 0.6374418391  Biso 1.0 Sb
Sb18 1.0000000000 0.0876744827 0.6374418391 0.6374418391  Biso 1.0 Sb
Sb19 1.0000000000 0.6374418391 0.6374418391 0.0876744827  Biso 1.0 Sb
Sb20 1.0000000000 0.6374418391 0.6374418391 0.6374418391  Biso 1.0 Sb
Sb21 1.0000000000 0.6623255173 0.1125581609 0.1125581609  Biso 1.0 Sb
Sb22 1.0000000000 0.1125581609 0.6623255173 0.1125581609  Biso 1.0 Sb
Sb23 1.0000000000 0.1125581609 0.1125581609 0.6623255173  Biso 1.0 Sb
Sb24 1.0000000000 0.1125581609 0.1125581609 0.1125581609  Biso 1.0 Sb
Sn25 1.0000000000 0.0000000000 0.0000000000 0.0000000000  Biso 1.0 Sn
Sn26 1.0000000000 0.7500000000 0.7500000000 0.7500000000  Biso 1.0 Sn
