# AFLOW.org Repositories
# Nb1Pt1Si1   [ORC,ORC,oP12] (STD_PRIM doi
data_Nb1Pt1Si1
_pd_phase_name Nb1Pt1Si1
_cell_length_a  3.8347693311
_cell_length_b  6.4899174898
_cell_length_c  7.4166202723
_cell_angle_alpha  90.0000000000
_cell_angle_beta  90.0000000000
_cell_angle_gamma  90.0000000000
_symmetry_space_group_name_H-M  'P1'
_symmetry_Int_Tables_Number  1
loop_
_symmetry_equiv_pos_site_id
_symmetry_equiv_pos_as_xyz
  1  x,y,z
loop_
 _atom_site_label
 _atom_site_occupancy
 _atom_site_fract_x
 _atom_site_fract_y
 _atom_site_fract_z
 _atom_site_thermal_displace_type
 _atom_site_B_iso_or_equiv
 _atom_site_type_symbol
Nb1 1.0000000000 0.2500000000 0.0258026356 0.8346827659  Biso 1.0 Nb
Nb2 1.0000000000 0.7500000000 0.4741973644 0.3346827659  Biso 1.0 Nb
Nb3 1.0000000000 0.7500000000 0.9741973644 0.1653172341  Biso 1.0 Nb
Nb4 1.0000000000 0.2500000000 0.5258026356 0.6653172341  Biso 1.0 Nb
Pt5 1.0000000000 0.2500000000 0.1534118785 0.4339252826  Biso 1.0 Pt
Pt6 1.0000000000 0.7500000000 0.3465881215 0.9339252826  Biso 1.0 Pt
Pt7 1.0000000000 0.7500000000 0.8465881215 0.5660747174  Biso 1.0 Pt
Pt8 1.0000000000 0.2500000000 0.6534118785 0.0660747174  Biso 1.0 Pt
Si9 1.0000000000 0.2500000000 0.7716406124 0.3742307982  Biso 1.0 Si
Si10 1.0000000000 0.7500000000 0.7283593876 0.8742307982  Biso 1.0 Si
Si11 1.0000000000 0.7500000000 0.2283593876 0.6257692018  Biso 1.0 Si
Si12 1.0000000000 0.2500000000 0.2716406124 0.1257692018  Biso 1.0 Si
