# AFLOW.org Repositories
# Nb1Pt3   [ORC,ORC,oP8] (STD_PRIM doi:10.
data_Nb1Pt3
_pd_phase_name Nb1Pt3
_cell_length_a  4.6108934275
_cell_length_b  4.9107709697
_cell_length_c  5.5792480504
_cell_angle_alpha  90.0000000000
_cell_angle_beta  90.0000000000
_cell_angle_gamma  90.0000000000
_symmetry_space_group_name_H-M  'P1'
_symmetry_Int_Tables_Number  1
loop_
_symmetry_equiv_pos_site_id
_symmetry_equiv_pos_as_xyz
  1  x,y,z
loop_
 _atom_site_label
 _atom_site_occupancy
 _atom_site_fract_x
 _atom_site_fract_y
 _atom_site_fract_z
 _atom_site_thermal_displace_type
 _atom_site_B_iso_or_equiv
 _atom_site_type_symbol
Nb1 1.0000000000 0.7500000000 0.3424539976 0.2500000000  Biso 1.0 Nb
Nb2 1.0000000000 0.2500000000 0.6575460024 0.7500000000  Biso 1.0 Nb
Pt3 1.0000000000 0.7500000000 0.8353062132 0.5002874500  Biso 1.0 Pt
Pt4 1.0000000000 0.7500000000 0.8353062132 0.0000000000  Biso 1.0 Pt
Pt5 1.0000000000 0.2500000000 0.1646937868 0.4997125500  Biso 1.0 Pt
Pt6 1.0000000000 0.2500000000 0.1646937868 0.0000000000  Biso 1.0 Pt
Pt7 1.0000000000 0.2500000000 0.6582466740 0.2500000000  Biso 1.0 Pt
Pt8 1.0000000000 0.7500000000 0.3417533260 0.7500000000  Biso 1.0 Pt
