# AFLOW.org Repositories
# Nb1Pt2   [ORCI,ORCI,oI6] (STD_PRIM doi:1
data_Nb1Pt2
_pd_phase_name Nb1Pt2
_cell_length_a  4.9179220571
_cell_length_b  4.9179220571
_cell_length_c  4.9179220571
_cell_angle_alpha  146.5100507777
_cell_angle_beta  132.3386690509
_cell_angle_gamma  59.5029387591
_symmetry_space_group_name_H-M  'P1'
_symmetry_Int_Tables_Number  1
loop_
_symmetry_equiv_pos_site_id
_symmetry_equiv_pos_as_xyz
  1  x,y,z
loop_
 _atom_site_label
 _atom_site_occupancy
 _atom_site_fract_x
 _atom_site_fract_y
 _atom_site_fract_z
 _atom_site_thermal_displace_type
 _atom_site_B_iso_or_equiv
 _atom_site_type_symbol
Nb1 1.0000000000 0.0000000000 0.0000000000 0.0000000000  Biso 1.0 Nb
Pt2 1.0000000000 0.6640312538 0.6640312538 0.0000000000  Biso 1.0 Pt
Pt3 1.0000000000 0.3359687462 0.3359687462 0.0000000000  Biso 1.0 Pt
