# AFLOW.org Repositories
# Nb1Pt1   [ORC,ORC,oP4] (STD_PRIM doi:10.
data_Nb1Pt1
_pd_phase_name Nb1Pt1
_cell_length_a  2.8087255693
_cell_length_b  4.6674746286
_cell_length_c  5.0463164562
_cell_angle_alpha  90.0000000000
_cell_angle_beta  90.0000000000
_cell_angle_gamma  90.0000000000
_symmetry_space_group_name_H-M  'P1'
_symmetry_Int_Tables_Number  1
loop_
_symmetry_equiv_pos_site_id
_symmetry_equiv_pos_as_xyz
  1  x,y,z
loop_
 _atom_site_label
 _atom_site_occupancy
 _atom_site_fract_x
 _atom_site_fract_y
 _atom_site_fract_z
 _atom_site_thermal_displace_type
 _atom_site_B_iso_or_equiv
 _atom_site_type_symbol
Nb1 1.0000000000 0.0000000000 0.2500000000 0.8184917580  Biso 1.0 Nb
Nb2 1.0000000000 0.0000000000 0.7500000000 0.1815082420  Biso 1.0 Nb
Pt3 1.0000000000 0.5000000000 0.2500000000 0.3273895204  Biso 1.0 Pt
Pt4 1.0000000000 0.5000000000 0.7500000000 0.6726104796  Biso 1.0 Pt
