# AFLOW.org Repositories
# Nb1P1   [BCT,BCT2,tI8] (STD_PRIM doi:10.
data_Nb1P1
_pd_phase_name Nb1P1
_cell_length_a  5.7944454068
_cell_length_b  5.7944454068
_cell_length_c  5.7944454068
_cell_angle_alpha  144.6413645072
_cell_angle_beta  144.6413645072
_cell_angle_gamma  50.8692961635
_symmetry_space_group_name_H-M  'P1'
_symmetry_Int_Tables_Number  1
loop_
_symmetry_equiv_pos_site_id
_symmetry_equiv_pos_as_xyz
  1  x,y,z
loop_
 _atom_site_label
 _atom_site_occupancy
 _atom_site_fract_x
 _atom_site_fract_y
 _atom_site_fract_z
 _atom_site_thermal_displace_type
 _atom_site_B_iso_or_equiv
 _atom_site_type_symbol
Nb1 1.0000000000 0.0000000000 0.0000000000 0.0000000000  Biso 1.0 Nb
Nb2 1.0000000000 0.2500000000 0.7500000000 0.5000000000  Biso 1.0 Nb
P3 1.0000000000 0.5000000000 0.5000000000 0.0000000000  Biso 1.0 P
P4 1.0000000000 0.7500000000 0.2500000000 0.5000000000  Biso 1.0 P
