# AFLOW.org Repositories
# Nb1P1Zr1   [ORC,ORC,oP12] (STD_PRIM doi:
data_Nb1P1Zr1
_pd_phase_name Nb1P1Zr1
_cell_length_a  3.5869922819
_cell_length_b  6.9213843592
_cell_length_c  8.3599715420
_cell_angle_alpha  90.0000000000
_cell_angle_beta  90.0000000000
_cell_angle_gamma  90.0000000000
_symmetry_space_group_name_H-M  'P1'
_symmetry_Int_Tables_Number  1
loop_
_symmetry_equiv_pos_site_id
_symmetry_equiv_pos_as_xyz
  1  x,y,z
loop_
 _atom_site_label
 _atom_site_occupancy
 _atom_site_fract_x
 _atom_site_fract_y
 _atom_site_fract_z
 _atom_site_thermal_displace_type
 _atom_site_B_iso_or_equiv
 _atom_site_type_symbol
Nb1 1.0000000000 0.2500000000 0.1391315789 0.0598147286  Biso 1.0 Nb
Nb2 1.0000000000 0.7500000000 0.3608684211 0.5598147286  Biso 1.0 Nb
Nb3 1.0000000000 0.7500000000 0.8608684211 0.9401852714  Biso 1.0 Nb
Nb4 1.0000000000 0.2500000000 0.6391315789 0.4401852714  Biso 1.0 Nb
P5 1.0000000000 0.2500000000 0.2619481539 0.3572944538  Biso 1.0 P
P6 1.0000000000 0.7500000000 0.2380518461 0.8572944538  Biso 1.0 P
P7 1.0000000000 0.7500000000 0.7380518461 0.6427055462  Biso 1.0 P
P8 1.0000000000 0.2500000000 0.7619481539 0.1427055462  Biso 1.0 P
Zr9 1.0000000000 0.2500000000 0.0334954128 0.6687829062  Biso 1.0 Zr
Zr10 1.0000000000 0.7500000000 0.4665045872 0.1687829062  Biso 1.0 Zr
Zr11 1.0000000000 0.7500000000 0.9665045872 0.3312170938  Biso 1.0 Zr
Zr12 1.0000000000 0.2500000000 0.5334954128 0.8312170938  Biso 1.0 Zr
