# AFLOW.org Repositories
# Nb1Rh1Si1   [ORC,ORC,oP12] (STD_PRIM doi
data_Nb1Rh1Si1
_pd_phase_name Nb1Rh1Si1
_cell_length_a  3.7618073057
_cell_length_b  6.4429481907
_cell_length_c  7.3440955566
_cell_angle_alpha  90.0000000000
_cell_angle_beta  90.0000000000
_cell_angle_gamma  90.0000000000
_symmetry_space_group_name_H-M  'P1'
_symmetry_Int_Tables_Number  1
loop_
_symmetry_equiv_pos_site_id
_symmetry_equiv_pos_as_xyz
  1  x,y,z
loop_
 _atom_site_label
 _atom_site_occupancy
 _atom_site_fract_x
 _atom_site_fract_y
 _atom_site_fract_z
 _atom_site_thermal_displace_type
 _atom_site_B_iso_or_equiv
 _atom_site_type_symbol
Nb1 1.0000000000 0.2500000000 0.0247582999 0.8261618022  Biso 1.0 Nb
Nb2 1.0000000000 0.7500000000 0.4752417001 0.3261618022  Biso 1.0 Nb
Nb3 1.0000000000 0.7500000000 0.9752417001 0.1738381978  Biso 1.0 Nb
Nb4 1.0000000000 0.2500000000 0.5247582999 0.6738381978  Biso 1.0 Nb
Rh5 1.0000000000 0.2500000000 0.1445926518 0.4366751339  Biso 1.0 Rh
Rh6 1.0000000000 0.7500000000 0.3554073482 0.9366751339  Biso 1.0 Rh
Rh7 1.0000000000 0.7500000000 0.8554073482 0.5633248661  Biso 1.0 Rh
Rh8 1.0000000000 0.2500000000 0.6445926518 0.0633248661  Biso 1.0 Rh
Si9 1.0000000000 0.2500000000 0.7695694180 0.3762336059  Biso 1.0 Si
Si10 1.0000000000 0.7500000000 0.7304305820 0.8762336059  Biso 1.0 Si
Si11 1.0000000000 0.7500000000 0.2304305820 0.6237663941  Biso 1.0 Si
Si12 1.0000000000 0.2500000000 0.2695694180 0.1237663941  Biso 1.0 Si
