# AFLOW.org Repositories
# Nb1Se4   [TET,TET,tP10] (STD_PRIM doi:10
data_Nb1Se4
_pd_phase_name Nb1Se4
_cell_length_a  5.9904672139
_cell_length_b  5.9904672139
_cell_length_c  6.4889590210
_cell_angle_alpha  90.0000000000
_cell_angle_beta  90.0000000000
_cell_angle_gamma  90.0000000000
_symmetry_space_group_name_H-M  'P1'
_symmetry_Int_Tables_Number  1
loop_
_symmetry_equiv_pos_site_id
_symmetry_equiv_pos_as_xyz
  1  x,y,z
loop_
 _atom_site_label
 _atom_site_occupancy
 _atom_site_fract_x
 _atom_site_fract_y
 _atom_site_fract_z
 _atom_site_thermal_displace_type
 _atom_site_B_iso_or_equiv
 _atom_site_type_symbol
Nb1 1.0000000000 0.0000000000 0.0000000000 0.2451069238  Biso 1.0 Nb
Nb2 1.0000000000 0.0000000000 0.0000000000 0.7451069238  Biso 1.0 Nb
Se3 1.0000000000 0.1355978305 0.3344054880 0.9949732691  Biso 1.0 Se
Se4 1.0000000000 0.8644021695 0.6655945120 0.9949732691  Biso 1.0 Se
Se5 1.0000000000 0.6655945120 0.1355978305 0.9949732691  Biso 1.0 Se
Se6 1.0000000000 0.3344054880 0.8644021695 0.9949732691  Biso 1.0 Se
Se7 1.0000000000 0.1355978305 0.6655945120 0.4949732691  Biso 1.0 Se
Se8 1.0000000000 0.8644021695 0.3344054880 0.4949732691  Biso 1.0 Se
Se9 1.0000000000 0.6655945120 0.8644021695 0.4949732691  Biso 1.0 Se
Se10 1.0000000000 0.3344054880 0.1355978305 0.4949732691  Biso 1.0 Se
