# AFLOW.org Repositories
# Nb1S2V0.333   [HEX,HEX,hP20] (STD_PRIM d
data_Nb1S2V0.333
_pd_phase_name Nb1S2V0.333
_cell_length_a  5.8210893856
_cell_length_b  5.8210893856
_cell_length_c  12.4116377269
_cell_angle_alpha  90.0000000000
_cell_angle_beta  90.0000000000
_cell_angle_gamma  120.0000000000
_symmetry_space_group_name_H-M  'P1'
_symmetry_Int_Tables_Number  1
loop_
_symmetry_equiv_pos_site_id
_symmetry_equiv_pos_as_xyz
  1  x,y,z
loop_
 _atom_site_label
 _atom_site_occupancy
 _atom_site_fract_x
 _atom_site_fract_y
 _atom_site_fract_z
 _atom_site_thermal_displace_type
 _atom_site_B_iso_or_equiv
 _atom_site_type_symbol
Nb1 1.0000000000 0.0000000000 0.0000000000 0.0000000000  Biso 1.0 Nb
Nb2 1.0000000000 0.0000000000 0.0000000000 0.5000000000  Biso 1.0 Nb
Nb3 1.0000000000 0.3333319658 0.6666656371 0.9982766975  Biso 1.0 Nb
Nb4 1.0000000000 0.6666680342 0.3333343629 0.4982766975  Biso 1.0 Nb
Nb5 1.0000000000 0.6666680342 0.3333336713 0.0017233025  Biso 1.0 Nb
Nb6 1.0000000000 0.3333319658 0.6666663287 0.5017233025  Biso 1.0 Nb
S7 1.0000000000 0.3316942543 0.3331138344 0.1269611411  Biso 1.0 S
S8 1.0000000000 0.6668876147 0.9985791693 0.1269608620  Biso 1.0 S
S9 1.0000000000 0.0014219288 0.6683068936 0.1269618457  Biso 1.0 S
S10 1.0000000000 0.6683057457 0.6668861656 0.6269611411  Biso 1.0 S
S11 1.0000000000 0.3331123853 0.0014208307 0.6269608620  Biso 1.0 S
S12 1.0000000000 0.9985780712 0.3316931064 0.6269618457  Biso 1.0 S
S13 1.0000000000 0.6683057457 0.0014195801 0.8730388589  Biso 1.0 S
S14 1.0000000000 0.3331123853 0.3316915546 0.8730391380  Biso 1.0 S
S15 1.0000000000 0.9985780712 0.6668849648 0.8730381543  Biso 1.0 S
S16 1.0000000000 0.3316942543 0.9985804199 0.3730388589  Biso 1.0 S
S17 1.0000000000 0.6668876147 0.6683084454 0.3730391380  Biso 1.0 S
S18 1.0000000000 0.0014219288 0.3331150352 0.3730381543  Biso 1.0 S
V19 1.0000000000 0.3333397637 0.6666698819 0.2500000000  Biso 1.0 V
V20 1.0000000000 0.6666602363 0.3333301181 0.7500000000  Biso 1.0 V
