# AFLOW.org Repositories
# Nb3Rh1Se6   [HEX,HEX,hP20] (STD_PRIM doi
data_Nb3Rh1Se6
_pd_phase_name Nb3Rh1Se6
_cell_length_a  6.0531908371
_cell_length_b  6.0531908371
_cell_length_c  12.8201793036
_cell_angle_alpha  90.0000000000
_cell_angle_beta  90.0000000000
_cell_angle_gamma  120.0000000000
_symmetry_space_group_name_H-M  'P1'
_symmetry_Int_Tables_Number  1
loop_
_symmetry_equiv_pos_site_id
_symmetry_equiv_pos_as_xyz
  1  x,y,z
loop_
 _atom_site_label
 _atom_site_occupancy
 _atom_site_fract_x
 _atom_site_fract_y
 _atom_site_fract_z
 _atom_site_thermal_displace_type
 _atom_site_B_iso_or_equiv
 _atom_site_type_symbol
Nb1 1.0000000000 0.0000000000 0.0000000000 0.0000000000  Biso 1.0 Nb
Nb2 1.0000000000 0.0000000000 0.0000000000 0.4999948045  Biso 1.0 Nb
Nb3 1.0000000000 0.6667415972 0.3334486855 0.5012241554  Biso 1.0 Nb
Nb4 1.0000000000 0.3333658923 0.6667745358 0.0012001005  Biso 1.0 Nb
Nb5 1.0000000000 0.3334136079 0.6667816896 0.4987749362  Biso 1.0 Nb
Nb6 1.0000000000 0.6666993017 0.3334364221 0.9987903125  Biso 1.0 Nb
Rh7 1.0000000000 0.6667345808 0.3334474580 0.2499726447  Biso 1.0 Rh
Rh8 1.0000000000 0.3334079537 0.6668221563 0.7500145268  Biso 1.0 Rh
Se9 1.0000000000 0.0048414801 0.6719531402 0.1317699616  Biso 1.0 Se
Se10 1.0000000000 0.3281149966 0.3330004497 0.1317522767  Biso 1.0 Se
Se11 1.0000000000 0.6671008199 0.9952505509 0.1317630947  Biso 1.0 Se
Se12 1.0000000000 0.9953366209 0.3282125308 0.6317568840  Biso 1.0 Se
Se13 1.0000000000 0.6719438428 0.6671709676 0.6317783270  Biso 1.0 Se
Se14 1.0000000000 0.3329950026 0.0048735276 0.6317822758  Biso 1.0 Se
Se15 1.0000000000 0.3329301919 0.3282127806 0.8682687744  Biso 1.0 Se
Se16 1.0000000000 0.9951973820 0.6671697027 0.8682368534  Biso 1.0 Se
Se17 1.0000000000 0.6718800850 0.0049182609 0.8682342948  Biso 1.0 Se
Se18 1.0000000000 0.6671418620 0.6719594556 0.3682311662  Biso 1.0 Se
Se19 1.0000000000 0.0048640232 0.3330166237 0.3682278709  Biso 1.0 Se
Se20 1.0000000000 0.3281632963 0.9953114022 0.3682383842  Biso 1.0 Se
