# AFLOW.org Repositories
# Nb3Sb2Te5   [BCC,BCC,cI40] (STD_PRIM doi
data_Nb3Sb2Te5
_pd_phase_name Nb3Sb2Te5
_cell_length_a  8.6037993675
_cell_length_b  8.6037993675
_cell_length_c  8.6037993675
_cell_angle_alpha  109.4712206345
_cell_angle_beta  109.4712206345
_cell_angle_gamma  109.4712206345
_symmetry_space_group_name_H-M  'P1'
_symmetry_Int_Tables_Number  1
loop_
_symmetry_equiv_pos_site_id
_symmetry_equiv_pos_as_xyz
  1  x,y,z
loop_
 _atom_site_label
 _atom_site_occupancy
 _atom_site_fract_x
 _atom_site_fract_y
 _atom_site_fract_z
 _atom_site_thermal_displace_type
 _atom_site_B_iso_or_equiv
 _atom_site_type_symbol
Nb1 1.0000000000 0.0000000000 0.6570897700 0.6570897700  Biso 1.0 Nb
Nb2 1.0000000000 0.0000000000 0.3429102300 0.3429102300  Biso 1.0 Nb
Nb3 1.0000000000 0.6570897700 0.0000000000 0.6570897700  Biso 1.0 Nb
Nb4 1.0000000000 0.3429102300 0.0000000000 0.3429102300  Biso 1.0 Nb
Nb5 1.0000000000 0.3429102300 0.3429102300 0.0000000000  Biso 1.0 Nb
Nb6 1.0000000000 0.6570897700 0.6570897700 0.0000000000  Biso 1.0 Nb
Sb7 1.0000000000 0.0000000000 0.0000000000 0.3324569241  Biso 1.0 Sb
Sb8 1.0000000000 0.6675430759 0.6675430759 0.6675430759  Biso 1.0 Sb
Sb9 1.0000000000 0.3324569241 0.0000000000 0.0000000000  Biso 1.0 Sb
Sb10 1.0000000000 0.0000000000 0.3324569241 0.0000000000  Biso 1.0 Sb
Te11 1.0000000000 0.5000000000 0.7500000000 0.2500000000  Biso 1.0 Te
Te12 1.0000000000 0.5000000000 0.2500000000 0.7500000000  Biso 1.0 Te
Te13 1.0000000000 0.2500000000 0.5000000000 0.7500000000  Biso 1.0 Te
Te14 1.0000000000 0.7500000000 0.5000000000 0.2500000000  Biso 1.0 Te
Te15 1.0000000000 0.2500000000 0.7500000000 0.5000000000  Biso 1.0 Te
Te16 1.0000000000 0.7500000000 0.2500000000 0.5000000000  Biso 1.0 Te
Te17 1.0000000000 0.0000000000 0.0000000000 0.6735912103  Biso 1.0 Te
Te18 1.0000000000 0.3264087897 0.3264087897 0.3264087897  Biso 1.0 Te
Te19 1.0000000000 0.6735912103 0.0000000000 0.0000000000  Biso 1.0 Te
Te20 1.0000000000 0.0000000000 0.6735912103 0.0000000000  Biso 1.0 Te
