# AFLOW.org Repositories
# Nb3Te4   [HEX,HEX,hP14] (STD_PRIM doi:10
data_Nb3Te4
_pd_phase_name Nb3Te4
_cell_length_a  10.8364250903
_cell_length_b  10.8364250903
_cell_length_c  3.6663306512
_cell_angle_alpha  90.0000000000
_cell_angle_beta  90.0000000000
_cell_angle_gamma  120.0000000000
_symmetry_space_group_name_H-M  'P1'
_symmetry_Int_Tables_Number  1
loop_
_symmetry_equiv_pos_site_id
_symmetry_equiv_pos_as_xyz
  1  x,y,z
loop_
 _atom_site_label
 _atom_site_occupancy
 _atom_site_fract_x
 _atom_site_fract_y
 _atom_site_fract_z
 _atom_site_thermal_displace_type
 _atom_site_B_iso_or_equiv
 _atom_site_type_symbol
Nb1 1.0000000000 0.4886383441 0.1013611914 0.2500000000  Biso 1.0 Nb
Nb2 1.0000000000 0.8986274341 0.3872566583 0.2500000000  Biso 1.0 Nb
Nb3 1.0000000000 0.6127294035 0.5113801910 0.2500000000  Biso 1.0 Nb
Nb4 1.0000000000 0.5113616559 0.8986388086 0.7500000000  Biso 1.0 Nb
Nb5 1.0000000000 0.1013725659 0.6127433417 0.7500000000  Biso 1.0 Nb
Nb6 1.0000000000 0.3872705965 0.4886198090 0.7500000000  Biso 1.0 Nb
Te7 1.0000000000 0.6666712479 0.3333373563 0.7500000000  Biso 1.0 Te
Te8 1.0000000000 0.3333287521 0.6666626437 0.2500000000  Biso 1.0 Te
Te9 1.0000000000 0.3375363423 0.2718051975 0.2500000000  Biso 1.0 Te
Te10 1.0000000000 0.7281907844 0.0657348431 0.2500000000  Biso 1.0 Te
Te11 1.0000000000 0.9342639958 0.6624552622 0.2500000000  Biso 1.0 Te
Te12 1.0000000000 0.6624636577 0.7281948025 0.7500000000  Biso 1.0 Te
Te13 1.0000000000 0.2718092156 0.9342651569 0.7500000000  Biso 1.0 Te
Te14 1.0000000000 0.0657360042 0.3375447378 0.7500000000  Biso 1.0 Te
