# AFLOW.org Repositories
# Nb5P4Pd4   [BCT,BCT1,tI26] (STD_PRIM doi
data_Nb5P4Pd4
_pd_phase_name Nb5P4Pd4
_cell_length_a  7.5985221316
_cell_length_b  7.5985221316
_cell_length_c  7.5985221316
_cell_angle_alpha  93.2972916596
_cell_angle_beta  93.2972916596
_cell_angle_gamma  152.2473779416
_symmetry_space_group_name_H-M  'P1'
_symmetry_Int_Tables_Number  1
loop_
_symmetry_equiv_pos_site_id
_symmetry_equiv_pos_as_xyz
  1  x,y,z
loop_
 _atom_site_label
 _atom_site_occupancy
 _atom_site_fract_x
 _atom_site_fract_y
 _atom_site_fract_z
 _atom_site_thermal_displace_type
 _atom_site_B_iso_or_equiv
 _atom_site_type_symbol
Nb1 1.0000000000 0.0000000000 0.0000000000 0.0000000000  Biso 1.0 Nb
Nb2 1.0000000000 0.3774293139 0.3119386972 0.6893680112  Biso 1.0 Nb
Nb3 1.0000000000 0.6225706861 0.6880613028 0.3106319888  Biso 1.0 Nb
Nb4 1.0000000000 0.3119386972 0.6225706861 0.9345093833  Biso 1.0 Nb
Nb5 1.0000000000 0.6880613028 0.3774293139 0.0654906167  Biso 1.0 Nb
P6 1.0000000000 0.2437085407 0.0598263274 0.3035348681  Biso 1.0 P
P7 1.0000000000 0.7562914593 0.9401736726 0.6964651319  Biso 1.0 P
P8 1.0000000000 0.0598263274 0.7562914593 0.8161177868  Biso 1.0 P
P9 1.0000000000 0.9401736726 0.2437085407 0.1838822132  Biso 1.0 P
Pd10 1.0000000000 0.1150538977 0.4035449946 0.5185988923  Biso 1.0 Pd
Pd11 1.0000000000 0.8849461023 0.5964550054 0.4814011077  Biso 1.0 Pd
Pd12 1.0000000000 0.4035449946 0.8849461023 0.2884910969  Biso 1.0 Pd
Pd13 1.0000000000 0.5964550054 0.1150538977 0.7115089031  Biso 1.0 Pd
