# AFLOW.org Repositories
# Nd1P12Ru4   [BCC,BCC,cI34] (STD_PRIM doi
data_Nd1P12Ru4
_pd_phase_name Nd1P12Ru4
_cell_length_a  7.0080872178
_cell_length_b  7.0080872178
_cell_length_c  7.0080872178
_cell_angle_alpha  109.4712206345
_cell_angle_beta  109.4712206345
_cell_angle_gamma  109.4712206345
_symmetry_space_group_name_H-M  'P1'
_symmetry_Int_Tables_Number  1
loop_
_symmetry_equiv_pos_site_id
_symmetry_equiv_pos_as_xyz
  1  x,y,z
loop_
 _atom_site_label
 _atom_site_occupancy
 _atom_site_fract_x
 _atom_site_fract_y
 _atom_site_fract_z
 _atom_site_thermal_displace_type
 _atom_site_B_iso_or_equiv
 _atom_site_type_symbol
Nd1 1.0000000000 0.0000000000 0.0000000000 0.0000000000  Biso 1.0 Nd
P2 1.0000000000 0.5012376083 0.3582319461 0.1430056622  Biso 1.0 P
P3 1.0000000000 0.2152262839 0.3582319461 0.8569943378  Biso 1.0 P
P4 1.0000000000 0.7847737161 0.6417680539 0.1430056622  Biso 1.0 P
P5 1.0000000000 0.4987623917 0.6417680539 0.8569943378  Biso 1.0 P
P6 1.0000000000 0.1430056622 0.5012376083 0.3582319461  Biso 1.0 P
P7 1.0000000000 0.8569943378 0.2152262839 0.3582319461  Biso 1.0 P
P8 1.0000000000 0.1430056622 0.7847737161 0.6417680539  Biso 1.0 P
P9 1.0000000000 0.8569943378 0.4987623917 0.6417680539  Biso 1.0 P
P10 1.0000000000 0.3582319461 0.1430056622 0.5012376083  Biso 1.0 P
P11 1.0000000000 0.3582319461 0.8569943378 0.2152262839  Biso 1.0 P
P12 1.0000000000 0.6417680539 0.1430056622 0.7847737161  Biso 1.0 P
P13 1.0000000000 0.6417680539 0.8569943378 0.4987623917  Biso 1.0 P
Ru14 1.0000000000 0.5000000000 0.5000000000 0.5000000000  Biso 1.0 Ru
Ru15 1.0000000000 0.0000000000 0.0000000000 0.5000000000  Biso 1.0 Ru
Ru16 1.0000000000 0.0000000000 0.5000000000 0.0000000000  Biso 1.0 Ru
Ru17 1.0000000000 0.5000000000 0.0000000000 0.0000000000  Biso 1.0 Ru
