# AFLOW.org Repositories
# Ni12P7Sc2   [HEX,HEX,hP21] (STD_PRIM doi
data_Ni12P7Sc2
_pd_phase_name Ni12P7Sc2
_cell_length_a  8.9372606938
_cell_length_b  8.9372606938
_cell_length_c  3.5859594500
_cell_angle_alpha  90.0000000000
_cell_angle_beta  90.0000000000
_cell_angle_gamma  120.0000000000
_symmetry_space_group_name_H-M  'P1'
_symmetry_Int_Tables_Number  1
loop_
_symmetry_equiv_pos_site_id
_symmetry_equiv_pos_as_xyz
  1  x,y,z
loop_
 _atom_site_label
 _atom_site_occupancy
 _atom_site_fract_x
 _atom_site_fract_y
 _atom_site_fract_z
 _atom_site_thermal_displace_type
 _atom_site_B_iso_or_equiv
 _atom_site_type_symbol
Ni1 1.0000000000 0.3821640813 0.9482723217 0.5000000000  Biso 1.0 Ni
Ni2 1.0000000000 0.0517434457 0.4339023316 0.5000000000  Biso 1.0 Ni
Ni3 1.0000000000 0.5661117018 0.6178302730 0.5000000000  Biso 1.0 Ni
Ni4 1.0000000000 0.1532743436 0.8777406464 0.0000000000  Biso 1.0 Ni
Ni5 1.0000000000 0.1222636942 0.2755159450 0.0000000000  Biso 1.0 Ni
Ni6 1.0000000000 0.7244523421 0.8467311001 0.0000000000  Biso 1.0 Ni
Ni7 1.0000000000 0.9039891513 0.7809009738 0.5000000000  Biso 1.0 Ni
Ni8 1.0000000000 0.2191180452 0.1230942436 0.5000000000  Biso 1.0 Ni
Ni9 1.0000000000 0.8769065799 0.0960261322 0.5000000000  Biso 1.0 Ni
Ni10 1.0000000000 0.9372183354 0.5652013601 0.0000000000  Biso 1.0 Ni
Ni11 1.0000000000 0.4348066917 0.3720315827 0.0000000000  Biso 1.0 Ni
Ni12 1.0000000000 0.6279655344 0.0627709501 0.0000000000  Biso 1.0 Ni
P13 1.0000000000 0.0000000000 0.0000000000 0.0000000000  Biso 1.0 P
P14 1.0000000000 0.1149401702 0.7060454731 0.5000000000  Biso 1.0 P
P15 1.0000000000 0.2939565913 0.4089020893 0.5000000000  Biso 1.0 P
P16 1.0000000000 0.5910894128 0.8850602731 0.5000000000  Biso 1.0 P
P17 1.0000000000 0.7051477289 0.5891310798 0.0000000000  Biso 1.0 P
P18 1.0000000000 0.4108714759 0.1160206818 0.0000000000  Biso 1.0 P
P19 1.0000000000 0.8839898331 0.2948452003 0.0000000000  Biso 1.0 P
Sc20 1.0000000000 0.3333278825 0.6666717692 0.0000000000  Biso 1.0 Sc
Sc21 1.0000000000 0.6666794289 0.3333186725 0.5000000000  Biso 1.0 Sc
