# AFLOW.org Repositories
# Ni16Si7Zr6   [FCC,FCC,cF116] (STD_PRIM d
data_Ni16Si7Zr6
_pd_phase_name Ni16Si7Zr6
_cell_length_a  8.0686685039
_cell_length_b  8.0686685039
_cell_length_c  8.0686685039
_cell_angle_alpha  60.0000000000
_cell_angle_beta  60.0000000000
_cell_angle_gamma  60.0000000000
_symmetry_space_group_name_H-M  'P1'
_symmetry_Int_Tables_Number  1
loop_
_symmetry_equiv_pos_site_id
_symmetry_equiv_pos_as_xyz
  1  x,y,z
loop_
 _atom_site_label
 _atom_site_occupancy
 _atom_site_fract_x
 _atom_site_fract_y
 _atom_site_fract_z
 _atom_site_thermal_displace_type
 _atom_site_B_iso_or_equiv
 _atom_site_type_symbol
Ni1 1.0000000000 0.8310055082 0.8310055082 0.8310055082  Biso 1.0 Ni
Ni2 1.0000000000 0.8310055082 0.5069834753 0.8310055082  Biso 1.0 Ni
Ni3 1.0000000000 0.8310055082 0.8310055082 0.5069834753  Biso 1.0 Ni
Ni4 1.0000000000 0.5069834753 0.8310055082 0.8310055082  Biso 1.0 Ni
Ni5 1.0000000000 0.1689944918 0.4930165247 0.1689944918  Biso 1.0 Ni
Ni6 1.0000000000 0.1689944918 0.1689944918 0.1689944918  Biso 1.0 Ni
Ni7 1.0000000000 0.1689944918 0.1689944918 0.4930165247  Biso 1.0 Ni
Ni8 1.0000000000 0.4930165247 0.1689944918 0.1689944918  Biso 1.0 Ni
Ni9 1.0000000000 0.6180445923 0.6180445923 0.6180445923  Biso 1.0 Ni
Ni10 1.0000000000 0.6180445923 0.1458662232 0.6180445923  Biso 1.0 Ni
Ni11 1.0000000000 0.6180445923 0.6180445923 0.1458662232  Biso 1.0 Ni
Ni12 1.0000000000 0.1458662232 0.6180445923 0.6180445923  Biso 1.0 Ni
Ni13 1.0000000000 0.3819554077 0.8541337768 0.3819554077  Biso 1.0 Ni
Ni14 1.0000000000 0.3819554077 0.3819554077 0.3819554077  Biso 1.0 Ni
Ni15 1.0000000000 0.3819554077 0.3819554077 0.8541337768  Biso 1.0 Ni
Ni16 1.0000000000 0.8541337768 0.3819554077 0.3819554077  Biso 1.0 Ni
Si17 1.0000000000 0.5000000000 0.0000000000 0.0000000000  Biso 1.0 Si
Si18 1.0000000000 0.0000000000 0.5000000000 0.5000000000  Biso 1.0 Si
Si19 1.0000000000 0.0000000000 0.0000000000 0.5000000000  Biso 1.0 Si
Si20 1.0000000000 0.5000000000 0.5000000000 0.0000000000  Biso 1.0 Si
Si21 1.0000000000 0.0000000000 0.5000000000 0.0000000000  Biso 1.0 Si
Si22 1.0000000000 0.5000000000 0.0000000000 0.5000000000  Biso 1.0 Si
Si23 1.0000000000 0.5000000000 0.5000000000 0.5000000000  Biso 1.0 Si
Zr24 1.0000000000 0.2082326495 0.7917673505 0.7917673505  Biso 1.0 Zr
Zr25 1.0000000000 0.7917673505 0.2082326495 0.2082326495  Biso 1.0 Zr
Zr26 1.0000000000 0.7917673505 0.7917673505 0.2082326495  Biso 1.0 Zr
Zr27 1.0000000000 0.2082326495 0.2082326495 0.7917673505  Biso 1.0 Zr
Zr28 1.0000000000 0.7917673505 0.2082326495 0.7917673505  Biso 1.0 Zr
Zr29 1.0000000000 0.2082326495 0.7917673505 0.2082326495  Biso 1.0 Zr
