# AFLOW.org Repositories
# Ni16Si7Ta6   [FCC,FCC,cF116] (STD_PRIM d
data_Ni16Si7Ta6
_pd_phase_name Ni16Si7Ta6
_cell_length_a  7.9121373295
_cell_length_b  7.9121373295
_cell_length_c  7.9121373295
_cell_angle_alpha  60.0000000000
_cell_angle_beta  60.0000000000
_cell_angle_gamma  60.0000000000
_symmetry_space_group_name_H-M  'P1'
_symmetry_Int_Tables_Number  1
loop_
_symmetry_equiv_pos_site_id
_symmetry_equiv_pos_as_xyz
  1  x,y,z
loop_
 _atom_site_label
 _atom_site_occupancy
 _atom_site_fract_x
 _atom_site_fract_y
 _atom_site_fract_z
 _atom_site_thermal_displace_type
 _atom_site_B_iso_or_equiv
 _atom_site_type_symbol
Ni1 1.0000000000 0.4963838935 0.1678720355 0.1678720355  Biso 1.0 Ni
Ni2 1.0000000000 0.1678720355 0.1678720355 0.1678720355  Biso 1.0 Ni
Ni3 1.0000000000 0.1678720355 0.4963838935 0.1678720355  Biso 1.0 Ni
Ni4 1.0000000000 0.1678720355 0.1678720355 0.4963838935  Biso 1.0 Ni
Ni5 1.0000000000 0.8321279645 0.8321279645 0.8321279645  Biso 1.0 Ni
Ni6 1.0000000000 0.5036161065 0.8321279645 0.8321279645  Biso 1.0 Ni
Ni7 1.0000000000 0.8321279645 0.5036161065 0.8321279645  Biso 1.0 Ni
Ni8 1.0000000000 0.8321279645 0.8321279645 0.5036161065  Biso 1.0 Ni
Ni9 1.0000000000 0.8494088391 0.3835303870 0.3835303870  Biso 1.0 Ni
Ni10 1.0000000000 0.3835303870 0.3835303870 0.3835303870  Biso 1.0 Ni
Ni11 1.0000000000 0.3835303870 0.8494088391 0.3835303870  Biso 1.0 Ni
Ni12 1.0000000000 0.3835303870 0.3835303870 0.8494088391  Biso 1.0 Ni
Ni13 1.0000000000 0.6164696130 0.6164696130 0.6164696130  Biso 1.0 Ni
Ni14 1.0000000000 0.1505911609 0.6164696130 0.6164696130  Biso 1.0 Ni
Ni15 1.0000000000 0.6164696130 0.1505911609 0.6164696130  Biso 1.0 Ni
Ni16 1.0000000000 0.6164696130 0.6164696130 0.1505911609  Biso 1.0 Ni
Si17 1.0000000000 0.5000000000 0.0000000000 0.5000000000  Biso 1.0 Si
Si18 1.0000000000 0.0000000000 0.5000000000 0.0000000000  Biso 1.0 Si
Si19 1.0000000000 0.5000000000 0.5000000000 0.0000000000  Biso 1.0 Si
Si20 1.0000000000 0.0000000000 0.0000000000 0.5000000000  Biso 1.0 Si
Si21 1.0000000000 0.5000000000 0.0000000000 0.0000000000  Biso 1.0 Si
Si22 1.0000000000 0.0000000000 0.5000000000 0.5000000000  Biso 1.0 Si
Si23 1.0000000000 0.5000000000 0.5000000000 0.5000000000  Biso 1.0 Si
Ta24 1.0000000000 0.7967754756 0.2032245244 0.7967754756  Biso 1.0 Ta
Ta25 1.0000000000 0.2032245244 0.7967754756 0.2032245244  Biso 1.0 Ta
Ta26 1.0000000000 0.7967754756 0.7967754756 0.2032245244  Biso 1.0 Ta
Ta27 1.0000000000 0.2032245244 0.2032245244 0.7967754756  Biso 1.0 Ta
Ta28 1.0000000000 0.7967754756 0.2032245244 0.2032245244  Biso 1.0 Ta
Ta29 1.0000000000 0.2032245244 0.7967754756 0.7967754756  Biso 1.0 Ta
