# AFLOW.org Repositories
# Ni1O6Sb2   [TET,TET,tP18] (STD_PRIM doi:
data_Ni1O6Sb2
_pd_phase_name Ni1O6Sb2
_cell_length_a  4.7163067134
_cell_length_b  4.7163067134
_cell_length_c  9.3652212814
_cell_angle_alpha  90.0000000000
_cell_angle_beta  90.0000000000
_cell_angle_gamma  90.0000000000
_symmetry_space_group_name_H-M  'P1'
_symmetry_Int_Tables_Number  1
loop_
_symmetry_equiv_pos_site_id
_symmetry_equiv_pos_as_xyz
  1  x,y,z
loop_
 _atom_site_label
 _atom_site_occupancy
 _atom_site_fract_x
 _atom_site_fract_y
 _atom_site_fract_z
 _atom_site_thermal_displace_type
 _atom_site_B_iso_or_equiv
 _atom_site_type_symbol
Ni1 1.0000000000 0.0000000000 0.0000000000 0.0000000000  Biso 1.0 Ni
Ni2 1.0000000000 0.5000000000 0.5000000000 0.5000000000  Biso 1.0 Ni
O3 1.0000000000 0.3093562062 0.3093562062 0.0000000000  Biso 1.0 O
O4 1.0000000000 0.6906437938 0.6906437938 0.0000000000  Biso 1.0 O
O5 1.0000000000 0.1906437938 0.8093562062 0.5000000000  Biso 1.0 O
O6 1.0000000000 0.8093562062 0.1906437938 0.5000000000  Biso 1.0 O
O7 1.0000000000 0.3031764641 0.3031764641 0.3293178318  Biso 1.0 O
O8 1.0000000000 0.6968235359 0.6968235359 0.3293178318  Biso 1.0 O
O9 1.0000000000 0.1968235359 0.8031764641 0.8293178318  Biso 1.0 O
O10 1.0000000000 0.8031764641 0.1968235359 0.8293178318  Biso 1.0 O
O11 1.0000000000 0.1968235359 0.8031764641 0.1706821682  Biso 1.0 O
O12 1.0000000000 0.8031764641 0.1968235359 0.1706821682  Biso 1.0 O
O13 1.0000000000 0.3031764641 0.3031764641 0.6706821682  Biso 1.0 O
O14 1.0000000000 0.6968235359 0.6968235359 0.6706821682  Biso 1.0 O
Sb15 1.0000000000 0.0000000000 0.0000000000 0.3324164559  Biso 1.0 Sb
Sb16 1.0000000000 0.5000000000 0.5000000000 0.8324164559  Biso 1.0 Sb
Sb17 1.0000000000 0.5000000000 0.5000000000 0.1675835441  Biso 1.0 Sb
Sb18 1.0000000000 0.0000000000 0.0000000000 0.6675835441  Biso 1.0 Sb
