# AFLOW.org Repositories
# Ni1P4Si3   [BCT,BCT2,tI16] (STD_PRIM doi
data_Ni1P4Si3
_pd_phase_name Ni1P4Si3
_cell_length_a  6.3719164966
_cell_length_b  6.3719164966
_cell_length_c  6.3719164966
_cell_angle_alpha  131.8807397387
_cell_angle_beta  131.8807397387
_cell_angle_gamma  70.4174508388
_symmetry_space_group_name_H-M  'P1'
_symmetry_Int_Tables_Number  1
loop_
_symmetry_equiv_pos_site_id
_symmetry_equiv_pos_as_xyz
  1  x,y,z
loop_
 _atom_site_label
 _atom_site_occupancy
 _atom_site_fract_x
 _atom_site_fract_y
 _atom_site_fract_z
 _atom_site_thermal_displace_type
 _atom_site_B_iso_or_equiv
 _atom_site_type_symbol
Ni1 1.0000000000 0.0000000000 0.0000000000 0.0000000000  Biso 1.0 Ni
P2 1.0000000000 0.3595584649 0.3595584649 0.4823109051  Biso 1.0 P
P3 1.0000000000 0.8772475598 0.8772475598 0.5176890949  Biso 1.0 P
P4 1.0000000000 0.1227524402 0.6404415351 0.0000000000  Biso 1.0 P
P5 1.0000000000 0.6404415351 0.1227524402 0.0000000000  Biso 1.0 P
Si6 1.0000000000 0.5000000000 0.5000000000 0.0000000000  Biso 1.0 Si
Si7 1.0000000000 0.7500000000 0.2500000000 0.5000000000  Biso 1.0 Si
Si8 1.0000000000 0.2500000000 0.7500000000 0.5000000000  Biso 1.0 Si
