# AFLOW.org Repositories
# Ni1P1Ta4   [TET,TET,tP12] (STD_PRIM doi:
data_Ni1P1Ta4
_pd_phase_name Ni1P1Ta4
_cell_length_a  6.1972852367
_cell_length_b  6.1972852367
_cell_length_c  4.9871762416
_cell_angle_alpha  90.0000000000
_cell_angle_beta  90.0000000000
_cell_angle_gamma  90.0000000000
_symmetry_space_group_name_H-M  'P1'
_symmetry_Int_Tables_Number  1
loop_
_symmetry_equiv_pos_site_id
_symmetry_equiv_pos_as_xyz
  1  x,y,z
loop_
 _atom_site_label
 _atom_site_occupancy
 _atom_site_fract_x
 _atom_site_fract_y
 _atom_site_fract_z
 _atom_site_thermal_displace_type
 _atom_site_B_iso_or_equiv
 _atom_site_type_symbol
Ni1 1.0000000000 0.0000000000 0.0000000000 0.2500000000  Biso 1.0 Ni
Ni2 1.0000000000 0.0000000000 0.0000000000 0.7500000000  Biso 1.0 Ni
P3 1.0000000000 0.5000000000 0.5000000000 0.2500000000  Biso 1.0 P
P4 1.0000000000 0.5000000000 0.5000000000 0.7500000000  Biso 1.0 P
Ta5 1.0000000000 0.1610599515 0.6636303066 0.0000000000  Biso 1.0 Ta
Ta6 1.0000000000 0.8389400485 0.3363696934 0.0000000000  Biso 1.0 Ta
Ta7 1.0000000000 0.3363696934 0.1610599515 0.0000000000  Biso 1.0 Ta
Ta8 1.0000000000 0.6636303066 0.8389400485 0.0000000000  Biso 1.0 Ta
Ta9 1.0000000000 0.8389400485 0.6636303066 0.5000000000  Biso 1.0 Ta
Ta10 1.0000000000 0.1610599515 0.3363696934 0.5000000000  Biso 1.0 Ta
Ta11 1.0000000000 0.6636303066 0.1610599515 0.5000000000  Biso 1.0 Ta
Ta12 1.0000000000 0.3363696934 0.8389400485 0.5000000000  Biso 1.0 Ta
