# AFLOW.org Repositories
# Ni1P1S1   [CUB,CUB,cP12] (STD_PRIM doi:1
data_Ni1P1S1
_pd_phase_name Ni1P1S1
_cell_length_a  5.6313307614
_cell_length_b  5.6313307614
_cell_length_c  5.6313307614
_cell_angle_alpha  90.0000000000
_cell_angle_beta  90.0000000000
_cell_angle_gamma  90.0000000000
_symmetry_space_group_name_H-M  'P1'
_symmetry_Int_Tables_Number  1
loop_
_symmetry_equiv_pos_site_id
_symmetry_equiv_pos_as_xyz
  1  x,y,z
loop_
 _atom_site_label
 _atom_site_occupancy
 _atom_site_fract_x
 _atom_site_fract_y
 _atom_site_fract_z
 _atom_site_thermal_displace_type
 _atom_site_B_iso_or_equiv
 _atom_site_type_symbol
Ni1 1.0000000000 0.9964101229 0.9964101229 0.0035898771  Biso 1.0 Ni
Ni2 1.0000000000 0.5035898771 0.0035898771 0.5035898771  Biso 1.0 Ni
Ni3 1.0000000000 0.0035898771 0.4964101229 0.4964101229  Biso 1.0 Ni
Ni4 1.0000000000 0.4964101229 0.5035898771 0.9964101229  Biso 1.0 Ni
P5 1.0000000000 0.3921376966 0.3921376966 0.6078623034  Biso 1.0 P
P6 1.0000000000 0.1078623034 0.6078623034 0.1078623034  Biso 1.0 P
P7 1.0000000000 0.6078623034 0.8921376966 0.8921376966  Biso 1.0 P
P8 1.0000000000 0.8921376966 0.1078623034 0.3921376966  Biso 1.0 P
S9 1.0000000000 0.6085987035 0.6085987035 0.3914012965  Biso 1.0 S
S10 1.0000000000 0.8914012965 0.3914012965 0.8914012965  Biso 1.0 S
S11 1.0000000000 0.3914012965 0.1085987035 0.1085987035  Biso 1.0 S
S12 1.0000000000 0.1085987035 0.8914012965 0.6085987035  Biso 1.0 S
