# AFLOW.org Repositories
# Ni1Pd1Te1   [ORC,ORC,oP12] (STD_PRIM doi
data_Ni1Pd1Te1
_pd_phase_name Ni1Pd1Te1
_cell_length_a  3.7821058349
_cell_length_b  6.3284903196
_cell_length_c  8.4172562479
_cell_angle_alpha  90.0000000000
_cell_angle_beta  90.0000000000
_cell_angle_gamma  90.0000000000
_symmetry_space_group_name_H-M  'P1'
_symmetry_Int_Tables_Number  1
loop_
_symmetry_equiv_pos_site_id
_symmetry_equiv_pos_as_xyz
  1  x,y,z
loop_
 _atom_site_label
 _atom_site_occupancy
 _atom_site_fract_x
 _atom_site_fract_y
 _atom_site_fract_z
 _atom_site_thermal_displace_type
 _atom_site_B_iso_or_equiv
 _atom_site_type_symbol
Ni1 1.0000000000 0.7500000000 0.5109931453 0.1064976423  Biso 1.0 Ni
Ni2 1.0000000000 0.2500000000 0.0109931453 0.3935023577  Biso 1.0 Ni
Ni3 1.0000000000 0.2500000000 0.4890068547 0.8935023577  Biso 1.0 Ni
Ni4 1.0000000000 0.7500000000 0.9890068547 0.6064976423  Biso 1.0 Ni
Pd5 1.0000000000 0.7500000000 0.3453127806 0.4144909644  Biso 1.0 Pd
Pd6 1.0000000000 0.2500000000 0.8453127806 0.0855090356  Biso 1.0 Pd
Pd7 1.0000000000 0.2500000000 0.6546872194 0.5855090356  Biso 1.0 Pd
Pd8 1.0000000000 0.7500000000 0.1546872194 0.9144909644  Biso 1.0 Pd
Te9 1.0000000000 0.7500000000 0.7601755210 0.3437009063  Biso 1.0 Te
Te10 1.0000000000 0.2500000000 0.2601755210 0.1562990937  Biso 1.0 Te
Te11 1.0000000000 0.2500000000 0.2398244790 0.6562990937  Biso 1.0 Te
Te12 1.0000000000 0.7500000000 0.7398244790 0.8437009063  Biso 1.0 Te
