# AFLOW.org Repositories
# Ni1P1Ta1   [ORC,ORC,oP12] (STD_PRIM doi:
data_Ni1P1Ta1
_pd_phase_name Ni1P1Ta1
_cell_length_a  3.5737299923
_cell_length_b  6.1332991973
_cell_length_c  7.1137970863
_cell_angle_alpha  90.0000000000
_cell_angle_beta  90.0000000000
_cell_angle_gamma  90.0000000000
_symmetry_space_group_name_H-M  'P1'
_symmetry_Int_Tables_Number  1
loop_
_symmetry_equiv_pos_site_id
_symmetry_equiv_pos_as_xyz
  1  x,y,z
loop_
 _atom_site_label
 _atom_site_occupancy
 _atom_site_fract_x
 _atom_site_fract_y
 _atom_site_fract_z
 _atom_site_thermal_displace_type
 _atom_site_B_iso_or_equiv
 _atom_site_type_symbol
Ni1 1.0000000000 0.2500000000 0.1498157342 0.4310633337  Biso 1.0 Ni
Ni2 1.0000000000 0.7500000000 0.3501842658 0.9310633337  Biso 1.0 Ni
Ni3 1.0000000000 0.7500000000 0.8501842658 0.5689366663  Biso 1.0 Ni
Ni4 1.0000000000 0.2500000000 0.6498157342 0.0689366663  Biso 1.0 Ni
P5 1.0000000000 0.2500000000 0.2847199502 0.1214096545  Biso 1.0 P
P6 1.0000000000 0.7500000000 0.2152800498 0.6214096545  Biso 1.0 P
P7 1.0000000000 0.7500000000 0.7152800498 0.8785903455  Biso 1.0 P
P8 1.0000000000 0.2500000000 0.7847199502 0.3785903455  Biso 1.0 P
Ta9 1.0000000000 0.2500000000 0.0199599482 0.8339186914  Biso 1.0 Ta
Ta10 1.0000000000 0.7500000000 0.4800400518 0.3339186914  Biso 1.0 Ta
Ta11 1.0000000000 0.7500000000 0.9800400518 0.1660813086  Biso 1.0 Ta
Ta12 1.0000000000 0.2500000000 0.5199599482 0.6660813086  Biso 1.0 Ta
