# AFLOW.org Repositories
# Ni1P2   [CUB,CUB,cP12] (STD_PRIM doi:10.
data_Ni1P2
_pd_phase_name Ni1P2
_cell_length_a  5.4450269313
_cell_length_b  5.4450269313
_cell_length_c  5.4450269313
_cell_angle_alpha  90.0000000000
_cell_angle_beta  90.0000000000
_cell_angle_gamma  90.0000000000
_symmetry_space_group_name_H-M  'P1'
_symmetry_Int_Tables_Number  1
loop_
_symmetry_equiv_pos_site_id
_symmetry_equiv_pos_as_xyz
  1  x,y,z
loop_
 _atom_site_label
 _atom_site_occupancy
 _atom_site_fract_x
 _atom_site_fract_y
 _atom_site_fract_z
 _atom_site_thermal_displace_type
 _atom_site_B_iso_or_equiv
 _atom_site_type_symbol
Ni1 1.0000000000 0.0000000000 0.0000000000 0.0000000000  Biso 1.0 Ni
Ni2 1.0000000000 0.5000000000 0.0000000000 0.5000000000  Biso 1.0 Ni
Ni3 1.0000000000 0.0000000000 0.5000000000 0.5000000000  Biso 1.0 Ni
Ni4 1.0000000000 0.5000000000 0.5000000000 0.0000000000  Biso 1.0 Ni
P5 1.0000000000 0.6161397947 0.6161397947 0.3838602053  Biso 1.0 P
P6 1.0000000000 0.8838602053 0.3838602053 0.8838602053  Biso 1.0 P
P7 1.0000000000 0.3838602053 0.1161397947 0.1161397947  Biso 1.0 P
P8 1.0000000000 0.1161397947 0.8838602053 0.6161397947  Biso 1.0 P
P9 1.0000000000 0.3838602053 0.3838602053 0.6161397947  Biso 1.0 P
P10 1.0000000000 0.1161397947 0.6161397947 0.1161397947  Biso 1.0 P
P11 1.0000000000 0.6161397947 0.8838602053 0.8838602053  Biso 1.0 P
P12 1.0000000000 0.8838602053 0.1161397947 0.3838602053  Biso 1.0 P
