# AFLOW.org Repositories
# Ni1Sn1Tb1   [ORC,ORC,oP12] (STD_PRIM doi
data_Ni1Sn1Tb1
_pd_phase_name Ni1Sn1Tb1
_cell_length_a  4.5187561600
_cell_length_b  7.2138948069
_cell_length_c  7.6915319746
_cell_angle_alpha  90.0000000000
_cell_angle_beta  90.0000000000
_cell_angle_gamma  90.0000000000
_symmetry_space_group_name_H-M  'P1'
_symmetry_Int_Tables_Number  1
loop_
_symmetry_equiv_pos_site_id
_symmetry_equiv_pos_as_xyz
  1  x,y,z
loop_
 _atom_site_label
 _atom_site_occupancy
 _atom_site_fract_x
 _atom_site_fract_y
 _atom_site_fract_z
 _atom_site_thermal_displace_type
 _atom_site_B_iso_or_equiv
 _atom_site_type_symbol
Ni1 1.0000000000 0.2500000000 0.1983413360 0.9156531326  Biso 1.0 Ni
Ni2 1.0000000000 0.7500000000 0.3016586640 0.4156531326  Biso 1.0 Ni
Ni3 1.0000000000 0.7500000000 0.8016586640 0.0843468674  Biso 1.0 Ni
Ni4 1.0000000000 0.2500000000 0.6983413360 0.5843468674  Biso 1.0 Ni
Sn5 1.0000000000 0.2500000000 0.3091045907 0.5872030249  Biso 1.0 Sn
Sn6 1.0000000000 0.7500000000 0.1908954093 0.0872030249  Biso 1.0 Sn
Sn7 1.0000000000 0.7500000000 0.6908954093 0.4127969751  Biso 1.0 Sn
Sn8 1.0000000000 0.2500000000 0.8091045907 0.9127969751  Biso 1.0 Sn
Tb9 1.0000000000 0.2500000000 0.9852966851 0.2976446373  Biso 1.0 Tb
Tb10 1.0000000000 0.7500000000 0.5147033149 0.7976446373  Biso 1.0 Tb
Tb11 1.0000000000 0.7500000000 0.0147033149 0.7023553627  Biso 1.0 Tb
Tb12 1.0000000000 0.2500000000 0.4852966851 0.2023553627  Biso 1.0 Tb
