# AFLOW.org Repositories
# Ni1Si1   [ORC,ORC,oP4] (STD_PRIM doi:10.
data_Ni1Si1
_pd_phase_name Ni1Si1
_cell_length_a  3.0031151232
_cell_length_b  3.2549040941
_cell_length_c  4.6866588718
_cell_angle_alpha  90.0000000000
_cell_angle_beta  90.0000000000
_cell_angle_gamma  90.0000000000
_symmetry_space_group_name_H-M  'P1'
_symmetry_Int_Tables_Number  1
loop_
_symmetry_equiv_pos_site_id
_symmetry_equiv_pos_as_xyz
  1  x,y,z
loop_
 _atom_site_label
 _atom_site_occupancy
 _atom_site_fract_x
 _atom_site_fract_y
 _atom_site_fract_z
 _atom_site_thermal_displace_type
 _atom_site_B_iso_or_equiv
 _atom_site_type_symbol
Ni1 1.0000000000 0.2500000000 0.2500000000 0.6563472520  Biso 1.0 Ni
Ni2 1.0000000000 0.7500000000 0.7500000000 0.3436527480  Biso 1.0 Ni
Si3 1.0000000000 0.2500000000 0.2500000000 0.1577964094  Biso 1.0 Si
Si4 1.0000000000 0.7500000000 0.7500000000 0.8422035906  Biso 1.0 Si
