# AFLOW.org Repositories
# Ni1Sb2   [ORC,ORC,oP6] (STD_PRIM doi:10.
data_Ni1Sb2
_pd_phase_name Ni1Sb2
_cell_length_a  3.8821654033
_cell_length_b  5.1963188709
_cell_length_c  6.3716255915
_cell_angle_alpha  90.0000000000
_cell_angle_beta  90.0000000000
_cell_angle_gamma  90.0000000000
_symmetry_space_group_name_H-M  'P1'
_symmetry_Int_Tables_Number  1
loop_
_symmetry_equiv_pos_site_id
_symmetry_equiv_pos_as_xyz
  1  x,y,z
loop_
 _atom_site_label
 _atom_site_occupancy
 _atom_site_fract_x
 _atom_site_fract_y
 _atom_site_fract_z
 _atom_site_thermal_displace_type
 _atom_site_B_iso_or_equiv
 _atom_site_type_symbol
Ni1 1.0000000000 0.0000000000 0.0000000000 0.0000000000  Biso 1.0 Ni
Ni2 1.0000000000 0.5000000000 0.5000000000 0.5000000000  Biso 1.0 Ni
Sb3 1.0000000000 0.0000000000 0.2205703164 0.6422920731  Biso 1.0 Sb
Sb4 1.0000000000 0.0000000000 0.7794296836 0.3577079269  Biso 1.0 Sb
Sb5 1.0000000000 0.5000000000 0.2794296836 0.1422920731  Biso 1.0 Sb
Sb6 1.0000000000 0.5000000000 0.7205703164 0.8577079269  Biso 1.0 Sb
