# AFLOW.org Repositories
# Ni1Sb1Zr1   [ORC,ORC,oP12] (STD_PRIM doi
data_Ni1Sb1Zr1
_pd_phase_name Ni1Sb1Zr1
_cell_length_a  4.1992809535
_cell_length_b  6.7688149267
_cell_length_c  7.5801879610
_cell_angle_alpha  90.0000000000
_cell_angle_beta  90.0000000000
_cell_angle_gamma  90.0000000000
_symmetry_space_group_name_H-M  'P1'
_symmetry_Int_Tables_Number  1
loop_
_symmetry_equiv_pos_site_id
_symmetry_equiv_pos_as_xyz
  1  x,y,z
loop_
 _atom_site_label
 _atom_site_occupancy
 _atom_site_fract_x
 _atom_site_fract_y
 _atom_site_fract_z
 _atom_site_thermal_displace_type
 _atom_site_B_iso_or_equiv
 _atom_site_type_symbol
Ni1 1.0000000000 0.2500000000 0.1749749245 0.5845411868  Biso 1.0 Ni
Ni2 1.0000000000 0.7500000000 0.3250250755 0.0845411868  Biso 1.0 Ni
Ni3 1.0000000000 0.7500000000 0.8250250755 0.4154588132  Biso 1.0 Ni
Ni4 1.0000000000 0.2500000000 0.6749749245 0.9154588132  Biso 1.0 Ni
Sb5 1.0000000000 0.2500000000 0.2885950008 0.9063924311  Biso 1.0 Sb
Sb6 1.0000000000 0.7500000000 0.2114049992 0.4063924311  Biso 1.0 Sb
Sb7 1.0000000000 0.7500000000 0.7114049992 0.0936075689  Biso 1.0 Sb
Sb8 1.0000000000 0.2500000000 0.7885950008 0.5936075689  Biso 1.0 Sb
Zr9 1.0000000000 0.2500000000 0.0015635087 0.1979663544  Biso 1.0 Zr
Zr10 1.0000000000 0.7500000000 0.4984364913 0.6979663544  Biso 1.0 Zr
Zr11 1.0000000000 0.7500000000 0.9984364913 0.8020336456  Biso 1.0 Zr
Zr12 1.0000000000 0.2500000000 0.5015635087 0.3020336456  Biso 1.0 Zr
