# AFLOW.org Repositories
# Ni1Sc6Te2   [HEX,HEX,hP9] (STD_PRIM doi:
data_Ni1Sc6Te2
_pd_phase_name Ni1Sc6Te2
_cell_length_a  7.9199145296
_cell_length_b  7.9199145296
_cell_length_c  3.7819057702
_cell_angle_alpha  90.0000000000
_cell_angle_beta  90.0000000000
_cell_angle_gamma  120.0000000000
_symmetry_space_group_name_H-M  'P1'
_symmetry_Int_Tables_Number  1
loop_
_symmetry_equiv_pos_site_id
_symmetry_equiv_pos_as_xyz
  1  x,y,z
loop_
 _atom_site_label
 _atom_site_occupancy
 _atom_site_fract_x
 _atom_site_fract_y
 _atom_site_fract_z
 _atom_site_thermal_displace_type
 _atom_site_B_iso_or_equiv
 _atom_site_type_symbol
Ni1 1.0000000000 0.0000000000 0.0000000000 0.0000000000  Biso 1.0 Ni
Sc2 1.0000000000 0.0000000000 0.7617766475 0.5000000000  Biso 1.0 Sc
Sc3 1.0000000000 0.2382233525 0.2382233525 0.5000000000  Biso 1.0 Sc
Sc4 1.0000000000 0.7617647418 0.0000000000 0.5000000000  Biso 1.0 Sc
Sc5 1.0000000000 0.0000000000 0.3922427231 0.0000000000  Biso 1.0 Sc
Sc6 1.0000000000 0.6077572769 0.6077572769 0.0000000000  Biso 1.0 Sc
Sc7 1.0000000000 0.3922372642 0.0000000000 0.0000000000  Biso 1.0 Sc
Te8 1.0000000000 0.6666664072 0.3333413603 0.5000000000  Biso 1.0 Te
Te9 1.0000000000 0.3333250469 0.6666586397 0.5000000000  Biso 1.0 Te
