# AFLOW.org Repositories
# Ni1Si1Th1   [BCT,BCT2,tI12] (STD_PRIM do
data_Ni1Si1Th1
_pd_phase_name Ni1Si1Th1
_cell_length_a  7.6127311561
_cell_length_b  7.6127311561
_cell_length_c  7.6127311561
_cell_angle_alpha  148.3512632993
_cell_angle_beta  148.3512632993
_cell_angle_gamma  45.3670968928
_symmetry_space_group_name_H-M  'P1'
_symmetry_Int_Tables_Number  1
loop_
_symmetry_equiv_pos_site_id
_symmetry_equiv_pos_as_xyz
  1  x,y,z
loop_
 _atom_site_label
 _atom_site_occupancy
 _atom_site_fract_x
 _atom_site_fract_y
 _atom_site_fract_z
 _atom_site_thermal_displace_type
 _atom_site_B_iso_or_equiv
 _atom_site_type_symbol
Ni1 1.0000000000 0.5875733947 0.5875733947 0.0000000000  Biso 1.0 Ni
Ni2 1.0000000000 0.8375733947 0.3375733947 0.5000000000  Biso 1.0 Ni
Si3 1.0000000000 0.4177926875 0.4177926875 0.0000000000  Biso 1.0 Si
Si4 1.0000000000 0.6677926875 0.1677926875 0.5000000000  Biso 1.0 Si
Th5 1.0000000000 0.9986339178 0.9986339178 0.0000000000  Biso 1.0 Th
Th6 1.0000000000 0.2486339178 0.7486339178 0.5000000000  Biso 1.0 Th
