# AFLOW.org Repositories
# Ni1S1Sb1   [CUB,CUB,cP12] (STD_PRIM doi:
data_Ni1S1Sb1
_pd_phase_name Ni1S1Sb1
_cell_length_a  5.9310340374
_cell_length_b  5.9310340374
_cell_length_c  5.9310340374
_cell_angle_alpha  90.0000000000
_cell_angle_beta  90.0000000000
_cell_angle_gamma  90.0000000000
_symmetry_space_group_name_H-M  'P1'
_symmetry_Int_Tables_Number  1
loop_
_symmetry_equiv_pos_site_id
_symmetry_equiv_pos_as_xyz
  1  x,y,z
loop_
 _atom_site_label
 _atom_site_occupancy
 _atom_site_fract_x
 _atom_site_fract_y
 _atom_site_fract_z
 _atom_site_thermal_displace_type
 _atom_site_B_iso_or_equiv
 _atom_site_type_symbol
Ni1 1.0000000000 0.9810682988 0.9810682988 0.0189317012  Biso 1.0 Ni
Ni2 1.0000000000 0.5189317012 0.0189317012 0.5189317012  Biso 1.0 Ni
Ni3 1.0000000000 0.0189317012 0.4810682988 0.4810682988  Biso 1.0 Ni
Ni4 1.0000000000 0.4810682988 0.5189317012 0.9810682988  Biso 1.0 Ni
S5 1.0000000000 0.3790695569 0.3790695569 0.6209304431  Biso 1.0 S
S6 1.0000000000 0.1209304431 0.6209304431 0.1209304431  Biso 1.0 S
S7 1.0000000000 0.6209304431 0.8790695569 0.8790695569  Biso 1.0 S
S8 1.0000000000 0.8790695569 0.1209304431 0.3790695569  Biso 1.0 S
Sb9 1.0000000000 0.6283398236 0.6283398236 0.3716601764  Biso 1.0 Sb
Sb10 1.0000000000 0.8716601764 0.3716601764 0.8716601764  Biso 1.0 Sb
Sb11 1.0000000000 0.3716601764 0.1283398236 0.1283398236  Biso 1.0 Sb
Sb12 1.0000000000 0.1283398236 0.8716601764 0.6283398236  Biso 1.0 Sb
