# AFLOW.org Repositories
# Ni1Tl1   [HEX,HEX,hP4] (STD_PRIM doi:10.
data_Ni1Tl1
_pd_phase_name Ni1Tl1
_cell_length_a  4.1192678120
_cell_length_b  4.1192678120
_cell_length_c  5.1001068700
_cell_angle_alpha  90.0000000000
_cell_angle_beta  90.0000000000
_cell_angle_gamma  120.0000000000
_symmetry_space_group_name_H-M  'P1'
_symmetry_Int_Tables_Number  1
loop_
_symmetry_equiv_pos_site_id
_symmetry_equiv_pos_as_xyz
  1  x,y,z
loop_
 _atom_site_label
 _atom_site_occupancy
 _atom_site_fract_x
 _atom_site_fract_y
 _atom_site_fract_z
 _atom_site_thermal_displace_type
 _atom_site_B_iso_or_equiv
 _atom_site_type_symbol
Ni1 1.0000000000 0.0000000000 0.0000000000 0.0000000000  Biso 1.0 Ni
Ni2 1.0000000000 0.0000000000 0.0000000000 0.5000000000  Biso 1.0 Ni
Tl3 1.0000000000 0.6666916559 0.3333833118 0.2500000000  Biso 1.0 Tl
Tl4 1.0000000000 0.3333083441 0.6666166882 0.7500000000  Biso 1.0 Tl
