# AFLOW.org Repositories
# Ni2Si1Ta3   [FCC,FCC,cF96] (STD_PRIM doi
data_Ni2Si1Ta3
_pd_phase_name Ni2Si1Ta3
_cell_length_a  7.9422871610
_cell_length_b  7.9422871610
_cell_length_c  7.9422871610
_cell_angle_alpha  60.0000000000
_cell_angle_beta  60.0000000000
_cell_angle_gamma  60.0000000000
_symmetry_space_group_name_H-M  'P1'
_symmetry_Int_Tables_Number  1
loop_
_symmetry_equiv_pos_site_id
_symmetry_equiv_pos_as_xyz
  1  x,y,z
loop_
 _atom_site_label
 _atom_site_occupancy
 _atom_site_fract_x
 _atom_site_fract_y
 _atom_site_fract_z
 _atom_site_thermal_displace_type
 _atom_site_B_iso_or_equiv
 _atom_site_type_symbol
Ni1 1.0000000000 0.4956681546 0.1681106151 0.1681106151  Biso 1.0 Ni
Ni2 1.0000000000 0.1681106151 0.1681106151 0.4956681546  Biso 1.0 Ni
Ni3 1.0000000000 0.1681106151 0.4956681546 0.1681106151  Biso 1.0 Ni
Ni4 1.0000000000 0.1681106151 0.1681106151 0.1681106151  Biso 1.0 Ni
Ni5 1.0000000000 0.5818893849 0.5818893849 0.2543318454  Biso 1.0 Ni
Ni6 1.0000000000 0.2543318454 0.5818893849 0.5818893849  Biso 1.0 Ni
Ni7 1.0000000000 0.5818893849 0.2543318454 0.5818893849  Biso 1.0 Ni
Ni8 1.0000000000 0.5818893849 0.5818893849 0.5818893849  Biso 1.0 Ni
Si9 1.0000000000 0.8750000000 0.3750000000 0.3750000000  Biso 1.0 Si
Si10 1.0000000000 0.3750000000 0.3750000000 0.8750000000  Biso 1.0 Si
Si11 1.0000000000 0.3750000000 0.8750000000 0.3750000000  Biso 1.0 Si
Si12 1.0000000000 0.3750000000 0.3750000000 0.3750000000  Biso 1.0 Si
Ta13 1.0000000000 0.2022938988 0.7977061012 0.7977061012  Biso 1.0 Ta
Ta14 1.0000000000 0.7977061012 0.2022938988 0.2022938988  Biso 1.0 Ta
Ta15 1.0000000000 0.2022938988 0.2022938988 0.7977061012  Biso 1.0 Ta
Ta16 1.0000000000 0.7977061012 0.7977061012 0.2022938988  Biso 1.0 Ta
Ta17 1.0000000000 0.2022938988 0.7977061012 0.2022938988  Biso 1.0 Ta
Ta18 1.0000000000 0.7977061012 0.2022938988 0.7977061012  Biso 1.0 Ta
Ta19 1.0000000000 0.9522938988 0.9522938988 0.5477061012  Biso 1.0 Ta
Ta20 1.0000000000 0.5477061012 0.5477061012 0.9522938988  Biso 1.0 Ta
Ta21 1.0000000000 0.9522938988 0.5477061012 0.5477061012  Biso 1.0 Ta
Ta22 1.0000000000 0.5477061012 0.9522938988 0.9522938988  Biso 1.0 Ta
Ta23 1.0000000000 0.5477061012 0.9522938988 0.5477061012  Biso 1.0 Ta
Ta24 1.0000000000 0.9522938988 0.5477061012 0.9522938988  Biso 1.0 Ta
