# AFLOW.org Repositories
# Ni2Si1Zn3   [FCC,FCC,cF96] (STD_PRIM doi
data_Ni2Si1Zn3
_pd_phase_name Ni2Si1Zn3
_cell_length_a  7.4897857614
_cell_length_b  7.4897857614
_cell_length_c  7.4897857614
_cell_angle_alpha  60.0000000000
_cell_angle_beta  60.0000000000
_cell_angle_gamma  60.0000000000
_symmetry_space_group_name_H-M  'P1'
_symmetry_Int_Tables_Number  1
loop_
_symmetry_equiv_pos_site_id
_symmetry_equiv_pos_as_xyz
  1  x,y,z
loop_
 _atom_site_label
 _atom_site_occupancy
 _atom_site_fract_x
 _atom_site_fract_y
 _atom_site_fract_z
 _atom_site_thermal_displace_type
 _atom_site_B_iso_or_equiv
 _atom_site_type_symbol
Ni1 1.0000000000 0.4881868396 0.8372710535 0.8372710535  Biso 1.0 Ni
Ni2 1.0000000000 0.8372710535 0.4881868396 0.8372710535  Biso 1.0 Ni
Ni3 1.0000000000 0.8372710535 0.8372710535 0.4881868396  Biso 1.0 Ni
Ni4 1.0000000000 0.8372710535 0.8372710535 0.8372710535  Biso 1.0 Ni
Ni5 1.0000000000 0.4127289465 0.7618131604 0.4127289465  Biso 1.0 Ni
Ni6 1.0000000000 0.7618131604 0.4127289465 0.4127289465  Biso 1.0 Ni
Ni7 1.0000000000 0.4127289465 0.4127289465 0.7618131604  Biso 1.0 Ni
Ni8 1.0000000000 0.4127289465 0.4127289465 0.4127289465  Biso 1.0 Ni
Si9 1.0000000000 0.1250000000 0.6250000000 0.6250000000  Biso 1.0 Si
Si10 1.0000000000 0.6250000000 0.1250000000 0.6250000000  Biso 1.0 Si
Si11 1.0000000000 0.6250000000 0.6250000000 0.1250000000  Biso 1.0 Si
Si12 1.0000000000 0.6250000000 0.6250000000 0.6250000000  Biso 1.0 Si
Zn13 1.0000000000 0.8123200659 0.1876799341 0.1876799341  Biso 1.0 Zn
Zn14 1.0000000000 0.1876799341 0.8123200659 0.8123200659  Biso 1.0 Zn
Zn15 1.0000000000 0.8123200659 0.1876799341 0.8123200659  Biso 1.0 Zn
Zn16 1.0000000000 0.1876799341 0.8123200659 0.1876799341  Biso 1.0 Zn
Zn17 1.0000000000 0.8123200659 0.8123200659 0.1876799341  Biso 1.0 Zn
Zn18 1.0000000000 0.1876799341 0.1876799341 0.8123200659  Biso 1.0 Zn
Zn19 1.0000000000 0.0623200659 0.4376799341 0.0623200659  Biso 1.0 Zn
Zn20 1.0000000000 0.4376799341 0.0623200659 0.4376799341  Biso 1.0 Zn
Zn21 1.0000000000 0.0623200659 0.4376799341 0.4376799341  Biso 1.0 Zn
Zn22 1.0000000000 0.4376799341 0.0623200659 0.0623200659  Biso 1.0 Zn
Zn23 1.0000000000 0.4376799341 0.4376799341 0.0623200659  Biso 1.0 Zn
Zn24 1.0000000000 0.0623200659 0.0623200659 0.4376799341  Biso 1.0 Zn
