# AFLOW.org Repositories
# Ni4P4Ta5   [BCT,BCT1,tI26] (STD_PRIM doi
data_Ni4P4Ta5
_pd_phase_name Ni4P4Ta5
_cell_length_a  7.2587270784
_cell_length_b  7.2587270784
_cell_length_c  7.2587270784
_cell_angle_alpha  93.3913269852
_cell_angle_beta  93.3913269852
_cell_angle_gamma  151.8468391626
_symmetry_space_group_name_H-M  'P1'
_symmetry_Int_Tables_Number  1
loop_
_symmetry_equiv_pos_site_id
_symmetry_equiv_pos_as_xyz
  1  x,y,z
loop_
 _atom_site_label
 _atom_site_occupancy
 _atom_site_fract_x
 _atom_site_fract_y
 _atom_site_fract_z
 _atom_site_thermal_displace_type
 _atom_site_B_iso_or_equiv
 _atom_site_type_symbol
Ni1 1.0000000000 0.6108192608 0.9125881811 0.5234074418  Biso 1.0 Ni
Ni2 1.0000000000 0.3891807392 0.0874118189 0.4765925582  Biso 1.0 Ni
Ni3 1.0000000000 0.9125881811 0.3891807392 0.3017689203  Biso 1.0 Ni
Ni4 1.0000000000 0.0874118189 0.6108192608 0.6982310797  Biso 1.0 Ni
P5 1.0000000000 0.7614254364 0.5553197341 0.3167451705  Biso 1.0 P
P6 1.0000000000 0.2385745636 0.4446802659 0.6832548295  Biso 1.0 P
P7 1.0000000000 0.5553197341 0.2385745636 0.7938942977  Biso 1.0 P
P8 1.0000000000 0.4446802659 0.7614254364 0.2061057023  Biso 1.0 P
Ta9 1.0000000000 0.8688683475 0.8048135011 0.6736818486  Biso 1.0 Ta
Ta10 1.0000000000 0.1311316525 0.1951864989 0.3263181514  Biso 1.0 Ta
Ta11 1.0000000000 0.8048135011 0.1311316525 0.9359451536  Biso 1.0 Ta
Ta12 1.0000000000 0.1951864989 0.8688683475 0.0640548464  Biso 1.0 Ta
Ta13 1.0000000000 0.5000000000 0.5000000000 0.0000000000  Biso 1.0 Ta
