# AFLOW.org Repositories
# Ni5P3Sr1   [ORCC,ORCC,oS36] (STD_PRIM do
data_Ni5P3Sr1
_pd_phase_name Ni5P3Sr1
_cell_length_a  6.1331881604
_cell_length_b  6.1331881604
_cell_length_c  11.5058340476
_cell_angle_alpha  90.0000000000
_cell_angle_beta  90.0000000000
_cell_angle_gamma  146.0208887274
_symmetry_space_group_name_H-M  'P1'
_symmetry_Int_Tables_Number  1
loop_
_symmetry_equiv_pos_site_id
_symmetry_equiv_pos_as_xyz
  1  x,y,z
loop_
 _atom_site_label
 _atom_site_occupancy
 _atom_site_fract_x
 _atom_site_fract_y
 _atom_site_fract_z
 _atom_site_thermal_displace_type
 _atom_site_B_iso_or_equiv
 _atom_site_type_symbol
Ni1 1.0000000000 0.0000000000 0.0000000000 0.0000000000  Biso 1.0 Ni
Ni2 1.0000000000 0.0000000000 0.0000000000 0.5000000000  Biso 1.0 Ni
Ni3 1.0000000000 0.5503501984 0.4496498016 0.6447996797  Biso 1.0 Ni
Ni4 1.0000000000 0.4496498016 0.5503501984 0.1447996797  Biso 1.0 Ni
Ni5 1.0000000000 0.5503501984 0.4496498016 0.8552003203  Biso 1.0 Ni
Ni6 1.0000000000 0.4496498016 0.5503501984 0.3552003203  Biso 1.0 Ni
Ni7 1.0000000000 0.8015335557 0.1984664443 0.0667315665  Biso 1.0 Ni
Ni8 1.0000000000 0.1984664443 0.8015335557 0.5667315665  Biso 1.0 Ni
Ni9 1.0000000000 0.8015335557 0.1984664443 0.4332684335  Biso 1.0 Ni
Ni10 1.0000000000 0.1984664443 0.8015335557 0.9332684335  Biso 1.0 Ni
P11 1.0000000000 0.6188864749 0.3811135251 0.0356663480  Biso 1.0 P
P12 1.0000000000 0.3811135251 0.6188864749 0.5356663480  Biso 1.0 P
P13 1.0000000000 0.6188864749 0.3811135251 0.4643336520  Biso 1.0 P
P14 1.0000000000 0.3811135251 0.6188864749 0.9643336520  Biso 1.0 P
P15 1.0000000000 0.1148249511 0.8851750489 0.7500000000  Biso 1.0 P
P16 1.0000000000 0.8851750489 0.1148249511 0.2500000000  Biso 1.0 P
Sr17 1.0000000000 0.8372660047 0.1627339953 0.7500000000  Biso 1.0 Sr
Sr18 1.0000000000 0.1627339953 0.8372660047 0.2500000000  Biso 1.0 Sr
