# AFLOW.org Repositories
# O1Ti3   [HEX,HEX,hP8] (STD_PRIM doi:10.1
data_O1Ti3
_pd_phase_name O1Ti3
_cell_length_a  5.2584793629
_cell_length_b  5.2584793629
_cell_length_c  4.9324693175
_cell_angle_alpha  90.0000000000
_cell_angle_beta  90.0000000000
_cell_angle_gamma  120.0000000000
_symmetry_space_group_name_H-M  'P1'
_symmetry_Int_Tables_Number  1
loop_
_symmetry_equiv_pos_site_id
_symmetry_equiv_pos_as_xyz
  1  x,y,z
loop_
 _atom_site_label
 _atom_site_occupancy
 _atom_site_fract_x
 _atom_site_fract_y
 _atom_site_fract_z
 _atom_site_thermal_displace_type
 _atom_site_B_iso_or_equiv
 _atom_site_type_symbol
O1 1.0000000000 0.0000000000 0.0000000000 0.5000000000  Biso 1.0 O
O2 1.0000000000 0.0000000000 0.0000000000 0.0000000000  Biso 1.0 O
Ti3 1.0000000000 0.6695861609 0.0000000000 0.2498023488  Biso 1.0 Ti
Ti4 1.0000000000 0.0000000000 0.6695861609 0.2498023488  Biso 1.0 Ti
Ti5 1.0000000000 0.3304138391 0.3304138391 0.2498023488  Biso 1.0 Ti
Ti6 1.0000000000 0.0000000000 0.3304138391 0.7501976512  Biso 1.0 Ti
Ti7 1.0000000000 0.3304138391 0.0000000000 0.7501976512  Biso 1.0 Ti
Ti8 1.0000000000 0.6695861609 0.6695861609 0.7501976512  Biso 1.0 Ti
