# AFLOW.org Repositories
# O2Pt1   [ORC,ORC,oP6] (STD_PRIM doi:10.1
data_O2Pt1
_pd_phase_name O2Pt1
_cell_length_a  3.1661847969
_cell_length_b  4.5721698875
_cell_length_c  4.5870187386
_cell_angle_alpha  90.0000000000
_cell_angle_beta  90.0000000000
_cell_angle_gamma  90.0000000000
_symmetry_space_group_name_H-M  'P1'
_symmetry_Int_Tables_Number  1
loop_
_symmetry_equiv_pos_site_id
_symmetry_equiv_pos_as_xyz
  1  x,y,z
loop_
 _atom_site_label
 _atom_site_occupancy
 _atom_site_fract_x
 _atom_site_fract_y
 _atom_site_fract_z
 _atom_site_thermal_displace_type
 _atom_site_B_iso_or_equiv
 _atom_site_type_symbol
O1 1.0000000000 0.0000000000 0.6406822473 0.2602267077  Biso 1.0 O
O2 1.0000000000 0.0000000000 0.3593177527 0.7397732923  Biso 1.0 O
O3 1.0000000000 0.5000000000 0.1406822473 0.2397732923  Biso 1.0 O
O4 1.0000000000 0.5000000000 0.8593177527 0.7602267077  Biso 1.0 O
Pt5 1.0000000000 0.0000000000 0.0000000000 0.0000000000  Biso 1.0 Pt
Pt6 1.0000000000 0.5000000000 0.5000000000 0.5000000000  Biso 1.0 Pt
