# AFLOW.org Repositories
# O2S1Sc2   [HEX,HEX,hP10] (STD_PRIM doi:1
data_O2S1Sc2
_pd_phase_name O2S1Sc2
_cell_length_a  3.5963027043
_cell_length_b  3.5963027043
_cell_length_c  12.7667726533
_cell_angle_alpha  90.0000000000
_cell_angle_beta  90.0000000000
_cell_angle_gamma  120.0000000000
_symmetry_space_group_name_H-M  'P1'
_symmetry_Int_Tables_Number  1
loop_
_symmetry_equiv_pos_site_id
_symmetry_equiv_pos_as_xyz
  1  x,y,z
loop_
 _atom_site_label
 _atom_site_occupancy
 _atom_site_fract_x
 _atom_site_fract_y
 _atom_site_fract_z
 _atom_site_thermal_displace_type
 _atom_site_B_iso_or_equiv
 _atom_site_type_symbol
O1 1.0000000000 0.3333430027 0.6666715013 0.0657627365  Biso 1.0 O
O2 1.0000000000 0.6666569973 0.3333284987 0.5657627365  Biso 1.0 O
O3 1.0000000000 0.6666569973 0.3333284987 0.9342372635  Biso 1.0 O
O4 1.0000000000 0.3333430027 0.6666715013 0.4342372635  Biso 1.0 O
S5 1.0000000000 0.0000000000 0.0000000000 0.2500000000  Biso 1.0 S
S6 1.0000000000 0.0000000000 0.0000000000 0.7500000000  Biso 1.0 S
Sc7 1.0000000000 0.3333463714 0.6666731857 0.8924190531  Biso 1.0 Sc
Sc8 1.0000000000 0.6666536286 0.3333268143 0.3924190531  Biso 1.0 Sc
Sc9 1.0000000000 0.6666536286 0.3333268143 0.1075809469  Biso 1.0 Sc
Sc10 1.0000000000 0.3333463714 0.6666731857 0.6075809469  Biso 1.0 Sc
