# AFLOW.org Repositories
# O2Si1   [BCT,BCT2,tI24] (STD_PRIM doi:10
data_O2Si1
_pd_phase_name O2Si1
_cell_length_a  6.9379475402
_cell_length_b  6.9379475402
_cell_length_c  6.9379475402
_cell_angle_alpha  131.7386160702
_cell_angle_beta  131.7386160702
_cell_angle_gamma  70.6421689817
_symmetry_space_group_name_H-M  'P1'
_symmetry_Int_Tables_Number  1
loop_
_symmetry_equiv_pos_site_id
_symmetry_equiv_pos_as_xyz
  1  x,y,z
loop_
 _atom_site_label
 _atom_site_occupancy
 _atom_site_fract_x
 _atom_site_fract_y
 _atom_site_fract_z
 _atom_site_thermal_displace_type
 _atom_site_B_iso_or_equiv
 _atom_site_type_symbol
O1 1.0000000000 0.1164006678 0.1164006678 0.0000000000  Biso 1.0 O
O2 1.0000000000 0.3664006678 0.8664006678 0.5000000000  Biso 1.0 O
O3 1.0000000000 0.1335993322 0.6335993322 0.5000000000  Biso 1.0 O
O4 1.0000000000 0.8835993322 0.8835993322 0.0000000000  Biso 1.0 O
O5 1.0000000000 0.7182871614 0.7182871614 0.4365743229  Biso 1.0 O
O6 1.0000000000 0.2817128386 0.2817128386 0.5634256771  Biso 1.0 O
O7 1.0000000000 0.5317128386 0.4682871614 0.5000000000  Biso 1.0 O
O8 1.0000000000 0.9682871614 0.0317128386 0.5000000000  Biso 1.0 O
Si9 1.0000000000 0.9862950144 0.8750000000 0.6112950144  Biso 1.0 Si
Si10 1.0000000000 0.2637049856 0.3750000000 0.3887049856  Biso 1.0 Si
Si11 1.0000000000 0.6250000000 0.7362950144 0.6112950144  Biso 1.0 Si
Si12 1.0000000000 0.1250000000 0.0137049856 0.3887049856  Biso 1.0 Si
