# AFLOW.org Repositories
# O2Si1   [CUB,CUB,cP36] (STD_PRIM doi:10.
data_O2Si1
_pd_phase_name O2Si1
_cell_length_a  8.7936814462
_cell_length_b  8.7936814462
_cell_length_c  8.7936814462
_cell_angle_alpha  90.0000000000
_cell_angle_beta  90.0000000000
_cell_angle_gamma  90.0000000000
_symmetry_space_group_name_H-M  'P1'
_symmetry_Int_Tables_Number  1
loop_
_symmetry_equiv_pos_site_id
_symmetry_equiv_pos_as_xyz
  1  x,y,z
loop_
 _atom_site_label
 _atom_site_occupancy
 _atom_site_fract_x
 _atom_site_fract_y
 _atom_site_fract_z
 _atom_site_thermal_displace_type
 _atom_site_B_iso_or_equiv
 _atom_site_type_symbol
O1 1.0000000000 0.5000000000 0.0000000000 0.3348305966  Biso 1.0 O
O2 1.0000000000 0.5000000000 0.0000000000 0.6651694034  Biso 1.0 O
O3 1.0000000000 0.6651694034 0.5000000000 0.0000000000  Biso 1.0 O
O4 1.0000000000 0.3348305966 0.5000000000 0.0000000000  Biso 1.0 O
O5 1.0000000000 0.0000000000 0.6651694034 0.5000000000  Biso 1.0 O
O6 1.0000000000 0.0000000000 0.3348305966 0.5000000000  Biso 1.0 O
O7 1.0000000000 0.5000000000 0.2482861835 0.5000000000  Biso 1.0 O
O8 1.0000000000 0.5000000000 0.7517138165 0.5000000000  Biso 1.0 O
O9 1.0000000000 0.5000000000 0.5000000000 0.7517138165  Biso 1.0 O
O10 1.0000000000 0.5000000000 0.5000000000 0.2482861835  Biso 1.0 O
O11 1.0000000000 0.2482861835 0.5000000000 0.5000000000  Biso 1.0 O
O12 1.0000000000 0.7517138165 0.5000000000 0.5000000000  Biso 1.0 O
O13 1.0000000000 0.7616989095 0.1833505315 0.4158509196  Biso 1.0 O
O14 1.0000000000 0.2383010905 0.8166494685 0.4158509196  Biso 1.0 O
O15 1.0000000000 0.2383010905 0.1833505315 0.5841490804  Biso 1.0 O
O16 1.0000000000 0.7616989095 0.8166494685 0.5841490804  Biso 1.0 O
O17 1.0000000000 0.5841490804 0.7616989095 0.8166494685  Biso 1.0 O
O18 1.0000000000 0.5841490804 0.2383010905 0.1833505315  Biso 1.0 O
O19 1.0000000000 0.4158509196 0.2383010905 0.8166494685  Biso 1.0 O
O20 1.0000000000 0.4158509196 0.7616989095 0.1833505315  Biso 1.0 O
O21 1.0000000000 0.1833505315 0.5841490804 0.2383010905  Biso 1.0 O
O22 1.0000000000 0.8166494685 0.5841490804 0.7616989095  Biso 1.0 O
O23 1.0000000000 0.1833505315 0.4158509196 0.7616989095  Biso 1.0 O
O24 1.0000000000 0.8166494685 0.4158509196 0.2383010905  Biso 1.0 O
Si25 1.0000000000 0.5836708687 0.1636946242 0.3555932659  Biso 1.0 Si
Si26 1.0000000000 0.4163291313 0.8363053758 0.3555932659  Biso 1.0 Si
Si27 1.0000000000 0.4163291313 0.1636946242 0.6444067341  Biso 1.0 Si
Si28 1.0000000000 0.5836708687 0.8363053758 0.6444067341  Biso 1.0 Si
Si29 1.0000000000 0.6444067341 0.5836708687 0.8363053758  Biso 1.0 Si
Si30 1.0000000000 0.6444067341 0.4163291313 0.1636946242  Biso 1.0 Si
Si31 1.0000000000 0.3555932659 0.4163291313 0.8363053758  Biso 1.0 Si
Si32 1.0000000000 0.3555932659 0.5836708687 0.1636946242  Biso 1.0 Si
Si33 1.0000000000 0.1636946242 0.6444067341 0.4163291313  Biso 1.0 Si
Si34 1.0000000000 0.8363053758 0.6444067341 0.5836708687  Biso 1.0 Si
Si35 1.0000000000 0.1636946242 0.3555932659 0.5836708687  Biso 1.0 Si
Si36 1.0000000000 0.8363053758 0.3555932659 0.4163291313  Biso 1.0 Si
