# AFLOW.org Repositories
# O2Si1   [CUB,CUB,cP12] (STD_PRIM doi:10.
data_O2Si1
_pd_phase_name O2Si1
_cell_length_a  4.4867753900
_cell_length_b  4.4867753900
_cell_length_c  4.4867753900
_cell_angle_alpha  90.0000000000
_cell_angle_beta  90.0000000000
_cell_angle_gamma  90.0000000000
_symmetry_space_group_name_H-M  'P1'
_symmetry_Int_Tables_Number  1
loop_
_symmetry_equiv_pos_site_id
_symmetry_equiv_pos_as_xyz
  1  x,y,z
loop_
 _atom_site_label
 _atom_site_occupancy
 _atom_site_fract_x
 _atom_site_fract_y
 _atom_site_fract_z
 _atom_site_thermal_displace_type
 _atom_site_B_iso_or_equiv
 _atom_site_type_symbol
O1 1.0000000000 0.6560565740 0.6560565740 0.3439434260  Biso 1.0 O
O2 1.0000000000 0.8439434260 0.3439434260 0.8439434260  Biso 1.0 O
O3 1.0000000000 0.3439434260 0.1560565740 0.1560565740  Biso 1.0 O
O4 1.0000000000 0.1560565740 0.8439434260 0.6560565740  Biso 1.0 O
O5 1.0000000000 0.3439434260 0.3439434260 0.6560565740  Biso 1.0 O
O6 1.0000000000 0.1560565740 0.6560565740 0.1560565740  Biso 1.0 O
O7 1.0000000000 0.6560565740 0.8439434260 0.8439434260  Biso 1.0 O
O8 1.0000000000 0.8439434260 0.1560565740 0.3439434260  Biso 1.0 O
Si9 1.0000000000 0.0000000000 0.0000000000 0.0000000000  Biso 1.0 Si
Si10 1.0000000000 0.5000000000 0.0000000000 0.5000000000  Biso 1.0 Si
Si11 1.0000000000 0.0000000000 0.5000000000 0.5000000000  Biso 1.0 Si
Si12 1.0000000000 0.5000000000 0.5000000000 0.0000000000  Biso 1.0 Si
