# AFLOW.org Repositories
# O2Sn1   [ORC,ORC,oP12] (STD_PRIM doi:10.
data_O2Sn1
_pd_phase_name O2Sn1
_cell_length_a  3.6103880055
_cell_length_b  5.3908728766
_cell_length_c  7.3571586212
_cell_angle_alpha  90.0000000000
_cell_angle_beta  90.0000000000
_cell_angle_gamma  90.0000000000
_symmetry_space_group_name_H-M  'P1'
_symmetry_Int_Tables_Number  1
loop_
_symmetry_equiv_pos_site_id
_symmetry_equiv_pos_as_xyz
  1  x,y,z
loop_
 _atom_site_label
 _atom_site_occupancy
 _atom_site_fract_x
 _atom_site_fract_y
 _atom_site_fract_z
 _atom_site_thermal_displace_type
 _atom_site_B_iso_or_equiv
 _atom_site_type_symbol
O1 1.0000000000 0.2500000000 0.3804210386 0.6120975245  Biso 1.0 O
O2 1.0000000000 0.7500000000 0.1195789614 0.1120975245  Biso 1.0 O
O3 1.0000000000 0.7500000000 0.6195789614 0.3879024755  Biso 1.0 O
O4 1.0000000000 0.2500000000 0.8804210386 0.8879024755  Biso 1.0 O
O5 1.0000000000 0.7500000000 0.9721169646 0.6357850118  Biso 1.0 O
O6 1.0000000000 0.2500000000 0.5278830354 0.1357850118  Biso 1.0 O
O7 1.0000000000 0.2500000000 0.0278830354 0.3642149882  Biso 1.0 O
O8 1.0000000000 0.7500000000 0.4721169646 0.8642149882  Biso 1.0 O
Sn9 1.0000000000 0.2500000000 0.2646830021 0.9178886885  Biso 1.0 Sn
Sn10 1.0000000000 0.7500000000 0.2353169979 0.4178886885  Biso 1.0 Sn
Sn11 1.0000000000 0.7500000000 0.7353169979 0.0821113115  Biso 1.0 Sn
Sn12 1.0000000000 0.2500000000 0.7646830021 0.5821113115  Biso 1.0 Sn
