# AFLOW.org Repositories
# O2Ti1   [BCT,BCT2,tI24] (STD_PRIM doi:10
data_O2Ti1
_pd_phase_name O2Ti1
_cell_length_a  6.0440745695
_cell_length_b  6.0440745695
_cell_length_c  6.0440745695
_cell_angle_alpha  120.2731274598
_cell_angle_beta  120.2731274598
_cell_angle_gamma  89.5275767958
_symmetry_space_group_name_H-M  'P1'
_symmetry_Int_Tables_Number  1
loop_
_symmetry_equiv_pos_site_id
_symmetry_equiv_pos_as_xyz
  1  x,y,z
loop_
 _atom_site_label
 _atom_site_occupancy
 _atom_site_fract_x
 _atom_site_fract_y
 _atom_site_fract_z
 _atom_site_thermal_displace_type
 _atom_site_B_iso_or_equiv
 _atom_site_type_symbol
O1 1.0000000000 0.6399487794 0.3581767721 0.2817720073  Biso 1.0 O
O2 1.0000000000 0.0764047648 0.3581767721 0.7182279927  Biso 1.0 O
O3 1.0000000000 0.1081767721 0.3264047648 0.2182279927  Biso 1.0 O
O4 1.0000000000 0.1081767721 0.8899487794 0.7817720073  Biso 1.0 O
O5 1.0000000000 0.6735952352 0.8918232279 0.7817720073  Biso 1.0 O
O6 1.0000000000 0.1100512206 0.8918232279 0.2182279927  Biso 1.0 O
O7 1.0000000000 0.6418232279 0.9235952352 0.2817720073  Biso 1.0 O
O8 1.0000000000 0.6418232279 0.3600512206 0.7182279927  Biso 1.0 O
Ti9 1.0000000000 0.8750000000 0.1250000000 0.7500000000  Biso 1.0 Ti
Ti10 1.0000000000 0.3750000000 0.1250000000 0.2500000000  Biso 1.0 Ti
Ti11 1.0000000000 0.8750000000 0.6250000000 0.7500000000  Biso 1.0 Ti
Ti12 1.0000000000 0.8750000000 0.1250000000 0.2500000000  Biso 1.0 Ti
