# AFLOW.org Repositories
# O2Ti1   [ORC,ORC,oP12] (STD_PRIM doi:10.
data_O2Ti1
_pd_phase_name O2Ti1
_cell_length_a  4.6128783294
_cell_length_b  5.0297132459
_cell_length_c  5.5894956550
_cell_angle_alpha  90.0000000000
_cell_angle_beta  90.0000000000
_cell_angle_gamma  90.0000000000
_symmetry_space_group_name_H-M  'P1'
_symmetry_Int_Tables_Number  1
loop_
_symmetry_equiv_pos_site_id
_symmetry_equiv_pos_as_xyz
  1  x,y,z
loop_
 _atom_site_label
 _atom_site_occupancy
 _atom_site_fract_x
 _atom_site_fract_y
 _atom_site_fract_z
 _atom_site_thermal_displace_type
 _atom_site_B_iso_or_equiv
 _atom_site_type_symbol
O1 1.0000000000 0.7273556805 0.4184549353 0.3824435666  Biso 1.0 O
O2 1.0000000000 0.7726443195 0.9184549353 0.1175564334  Biso 1.0 O
O3 1.0000000000 0.2726443195 0.0815450647 0.3824435666  Biso 1.0 O
O4 1.0000000000 0.2273556805 0.5815450647 0.1175564334  Biso 1.0 O
O5 1.0000000000 0.2726443195 0.5815450647 0.6175564334  Biso 1.0 O
O6 1.0000000000 0.2273556805 0.0815450647 0.8824435666  Biso 1.0 O
O7 1.0000000000 0.7273556805 0.9184549353 0.6175564334  Biso 1.0 O
O8 1.0000000000 0.7726443195 0.4184549353 0.8824435666  Biso 1.0 O
Ti9 1.0000000000 0.0000000000 0.2500000000 0.1624982711  Biso 1.0 Ti
Ti10 1.0000000000 0.5000000000 0.7500000000 0.3375017289  Biso 1.0 Ti
Ti11 1.0000000000 0.0000000000 0.7500000000 0.8375017289  Biso 1.0 Ti
Ti12 1.0000000000 0.5000000000 0.2500000000 0.6624982711  Biso 1.0 Ti
