# AFLOW.org Repositories
# O3Pb1Sr1   [ORC,ORC,oP20] (STD_PRIM doi:
data_O3Pb1Sr1
_pd_phase_name O3Pb1Sr1
_cell_length_a  5.9534162653
_cell_length_b  6.0961925603
_cell_length_c  8.4631876714
_cell_angle_alpha  90.0000000000
_cell_angle_beta  90.0000000000
_cell_angle_gamma  90.0000000000
_symmetry_space_group_name_H-M  'P1'
_symmetry_Int_Tables_Number  1
loop_
_symmetry_equiv_pos_site_id
_symmetry_equiv_pos_as_xyz
  1  x,y,z
loop_
 _atom_site_label
 _atom_site_occupancy
 _atom_site_fract_x
 _atom_site_fract_y
 _atom_site_fract_z
 _atom_site_thermal_displace_type
 _atom_site_B_iso_or_equiv
 _atom_site_type_symbol
O1 1.0000000000 0.7982843829 0.2948820515 0.0548201780  Biso 1.0 O
O2 1.0000000000 0.2982843829 0.2051179485 0.9451798220  Biso 1.0 O
O3 1.0000000000 0.2017156171 0.7051179485 0.5548201780  Biso 1.0 O
O4 1.0000000000 0.7017156171 0.7948820515 0.4451798220  Biso 1.0 O
O5 1.0000000000 0.2017156171 0.7051179485 0.9451798220  Biso 1.0 O
O6 1.0000000000 0.7017156171 0.7948820515 0.0548201780  Biso 1.0 O
O7 1.0000000000 0.7982843829 0.2948820515 0.4451798220  Biso 1.0 O
O8 1.0000000000 0.2982843829 0.2051179485 0.5548201780  Biso 1.0 O
O9 1.0000000000 0.8976397256 0.0404282995 0.7500000000  Biso 1.0 O
O10 1.0000000000 0.3976397256 0.4595717005 0.2500000000  Biso 1.0 O
O11 1.0000000000 0.1023602744 0.9595717005 0.2500000000  Biso 1.0 O
O12 1.0000000000 0.6023602744 0.5404282995 0.7500000000  Biso 1.0 O
Pb13 1.0000000000 0.0000000000 0.0000000000 0.0000000000  Biso 1.0 Pb
Pb14 1.0000000000 0.5000000000 0.5000000000 0.0000000000  Biso 1.0 Pb
Pb15 1.0000000000 0.0000000000 0.0000000000 0.5000000000  Biso 1.0 Pb
Pb16 1.0000000000 0.5000000000 0.5000000000 0.5000000000  Biso 1.0 Pb
Sr17 1.0000000000 0.0145209734 0.4497287503 0.7500000000  Biso 1.0 Sr
Sr18 1.0000000000 0.5145209734 0.0502712497 0.2500000000  Biso 1.0 Sr
Sr19 1.0000000000 0.9854790266 0.5502712497 0.2500000000  Biso 1.0 Sr
Sr20 1.0000000000 0.4854790266 0.9497287503 0.7500000000  Biso 1.0 Sr
