# AFLOW.org Repositories
# O3Pb1Tc1   [FCC,FCC,cF80] (STD_PRIM doi:
data_O3Pb1Tc1
_pd_phase_name O3Pb1Tc1
_cell_length_a  7.4357855935
_cell_length_b  7.4357855935
_cell_length_c  7.4357855935
_cell_angle_alpha  60.0000000000
_cell_angle_beta  60.0000000000
_cell_angle_gamma  60.0000000000
_symmetry_space_group_name_H-M  'P1'
_symmetry_Int_Tables_Number  1
loop_
_symmetry_equiv_pos_site_id
_symmetry_equiv_pos_as_xyz
  1  x,y,z
loop_
 _atom_site_label
 _atom_site_occupancy
 _atom_site_fract_x
 _atom_site_fract_y
 _atom_site_fract_z
 _atom_site_thermal_displace_type
 _atom_site_B_iso_or_equiv
 _atom_site_type_symbol
O1 1.0000000000 0.3231409815 0.4268590185 0.9268590185  Biso 1.0 O
O2 1.0000000000 0.9268590185 0.8231409815 0.3231409815  Biso 1.0 O
O3 1.0000000000 0.3231409815 0.4268590185 0.3231409815  Biso 1.0 O
O4 1.0000000000 0.9268590185 0.8231409815 0.9268590185  Biso 1.0 O
O5 1.0000000000 0.9268590185 0.4268590185 0.3231409815  Biso 1.0 O
O6 1.0000000000 0.3231409815 0.8231409815 0.9268590185  Biso 1.0 O
O7 1.0000000000 0.0731409815 0.1768590185 0.0731409815  Biso 1.0 O
O8 1.0000000000 0.6768590185 0.5731409815 0.6768590185  Biso 1.0 O
O9 1.0000000000 0.0731409815 0.1768590185 0.6768590185  Biso 1.0 O
O10 1.0000000000 0.6768590185 0.5731409815 0.0731409815  Biso 1.0 O
O11 1.0000000000 0.0731409815 0.5731409815 0.6768590185  Biso 1.0 O
O12 1.0000000000 0.6768590185 0.1768590185 0.0731409815  Biso 1.0 O
Pb13 1.0000000000 0.5000000000 0.5000000000 0.5000000000  Biso 1.0 Pb
Pb14 1.0000000000 0.0000000000 0.0000000000 0.5000000000  Biso 1.0 Pb
Pb15 1.0000000000 0.5000000000 0.0000000000 0.5000000000  Biso 1.0 Pb
Pb16 1.0000000000 0.5000000000 0.0000000000 0.0000000000  Biso 1.0 Pb
Tc17 1.0000000000 0.0000000000 0.0000000000 0.0000000000  Biso 1.0 Tc
Tc18 1.0000000000 0.5000000000 0.5000000000 0.0000000000  Biso 1.0 Tc
Tc19 1.0000000000 0.0000000000 0.5000000000 0.0000000000  Biso 1.0 Tc
Tc20 1.0000000000 0.0000000000 0.5000000000 0.5000000000  Biso 1.0 Tc
