# AFLOW.org Repositories
# O3Sb2   [FCC,FCC,cF80] (STD_PRIM doi:10.
data_O3Sb2
_pd_phase_name O3Sb2
_cell_length_a  8.1162587970
_cell_length_b  8.1162587970
_cell_length_c  8.1162587970
_cell_angle_alpha  60.0000000000
_cell_angle_beta  60.0000000000
_cell_angle_gamma  60.0000000000
_symmetry_space_group_name_H-M  'P1'
_symmetry_Int_Tables_Number  1
loop_
_symmetry_equiv_pos_site_id
_symmetry_equiv_pos_as_xyz
  1  x,y,z
loop_
 _atom_site_label
 _atom_site_occupancy
 _atom_site_fract_x
 _atom_site_fract_y
 _atom_site_fract_z
 _atom_site_thermal_displace_type
 _atom_site_B_iso_or_equiv
 _atom_site_type_symbol
O1 1.0000000000 0.1852700785 0.8147299215 0.1852700785  Biso 1.0 O
O2 1.0000000000 0.8147299215 0.1852700785 0.8147299215  Biso 1.0 O
O3 1.0000000000 0.1852700785 0.8147299215 0.8147299215  Biso 1.0 O
O4 1.0000000000 0.8147299215 0.1852700785 0.1852700785  Biso 1.0 O
O5 1.0000000000 0.1852700785 0.1852700785 0.8147299215  Biso 1.0 O
O6 1.0000000000 0.8147299215 0.8147299215 0.1852700785  Biso 1.0 O
O7 1.0000000000 0.9352700785 0.5647299215 0.5647299215  Biso 1.0 O
O8 1.0000000000 0.5647299215 0.9352700785 0.9352700785  Biso 1.0 O
O9 1.0000000000 0.9352700785 0.5647299215 0.9352700785  Biso 1.0 O
O10 1.0000000000 0.5647299215 0.9352700785 0.5647299215  Biso 1.0 O
O11 1.0000000000 0.5647299215 0.5647299215 0.9352700785  Biso 1.0 O
O12 1.0000000000 0.9352700785 0.9352700785 0.5647299215  Biso 1.0 O
Sb13 1.0000000000 0.6621976604 0.1126007799 0.1126007799  Biso 1.0 Sb
Sb14 1.0000000000 0.1126007799 0.6621976604 0.1126007799  Biso 1.0 Sb
Sb15 1.0000000000 0.1126007799 0.1126007799 0.1126007799  Biso 1.0 Sb
Sb16 1.0000000000 0.1126007799 0.1126007799 0.6621976604  Biso 1.0 Sb
Sb17 1.0000000000 0.6373992201 0.0878023396 0.6373992201  Biso 1.0 Sb
Sb18 1.0000000000 0.0878023396 0.6373992201 0.6373992201  Biso 1.0 Sb
Sb19 1.0000000000 0.6373992201 0.6373992201 0.6373992201  Biso 1.0 Sb
Sb20 1.0000000000 0.6373992201 0.6373992201 0.0878023396  Biso 1.0 Sb
