# AFLOW.org Repositories
# O3Sc2   [BCC,BCC,cI80] (STD_PRIM doi:10.
data_O3Sc2
_pd_phase_name O3Sc2
_cell_length_a  8.6996246436
_cell_length_b  8.6996246436
_cell_length_c  8.6996246436
_cell_angle_alpha  109.4712206345
_cell_angle_beta  109.4712206345
_cell_angle_gamma  109.4712206345
_symmetry_space_group_name_H-M  'P1'
_symmetry_Int_Tables_Number  1
loop_
_symmetry_equiv_pos_site_id
_symmetry_equiv_pos_as_xyz
  1  x,y,z
loop_
 _atom_site_label
 _atom_site_occupancy
 _atom_site_fract_x
 _atom_site_fract_y
 _atom_site_fract_z
 _atom_site_thermal_displace_type
 _atom_site_B_iso_or_equiv
 _atom_site_type_symbol
O1 1.0000000000 0.7729718415 0.2274556110 0.7632836499  Biso 1.0 O
O2 1.0000000000 0.9641719611 0.0096881916 0.7367163501  Biso 1.0 O
O3 1.0000000000 0.5358280389 0.2725443890 0.0455162305  Biso 1.0 O
O4 1.0000000000 0.7270281585 0.4903118084 0.4544837695  Biso 1.0 O
O5 1.0000000000 0.2367163501 0.4641719611 0.0096881916  Biso 1.0 O
O6 1.0000000000 0.2632836499 0.2729718415 0.2274556110  Biso 1.0 O
O7 1.0000000000 0.9544837695 0.2270281585 0.4903118084  Biso 1.0 O
O8 1.0000000000 0.5455162305 0.0358280389 0.2725443890  Biso 1.0 O
O9 1.0000000000 0.9903118084 0.4544837695 0.2270281585  Biso 1.0 O
O10 1.0000000000 0.7725443890 0.0455162305 0.0358280389  Biso 1.0 O
O11 1.0000000000 0.5096881916 0.7367163501 0.4641719611  Biso 1.0 O
O12 1.0000000000 0.7274556110 0.7632836499 0.2729718415  Biso 1.0 O
O13 1.0000000000 0.2270281585 0.7725443890 0.2367163501  Biso 1.0 O
O14 1.0000000000 0.0358280389 0.9903118084 0.2632836499  Biso 1.0 O
O15 1.0000000000 0.4641719611 0.7274556110 0.9544837695  Biso 1.0 O
O16 1.0000000000 0.2729718415 0.5096881916 0.5455162305  Biso 1.0 O
O17 1.0000000000 0.7632836499 0.5358280389 0.9903118084  Biso 1.0 O
O18 1.0000000000 0.7367163501 0.7270281585 0.7725443890  Biso 1.0 O
O19 1.0000000000 0.0455162305 0.7729718415 0.5096881916  Biso 1.0 O
O20 1.0000000000 0.4544837695 0.9641719611 0.7274556110  Biso 1.0 O
O21 1.0000000000 0.0096881916 0.5455162305 0.7729718415  Biso 1.0 O
O22 1.0000000000 0.2274556110 0.9544837695 0.9641719611  Biso 1.0 O
O23 1.0000000000 0.4903118084 0.2632836499 0.5358280389  Biso 1.0 O
O24 1.0000000000 0.2725443890 0.2367163501 0.7270281585  Biso 1.0 O
Sc25 1.0000000000 0.0000000000 0.5000000000 0.0000000000  Biso 1.0 Sc
Sc26 1.0000000000 0.0000000000 0.0000000000 0.5000000000  Biso 1.0 Sc
Sc27 1.0000000000 0.5000000000 0.0000000000 0.0000000000  Biso 1.0 Sc
Sc28 1.0000000000 0.5000000000 0.5000000000 0.5000000000  Biso 1.0 Sc
Sc29 1.0000000000 0.7500000000 0.7853968013 0.0353968013  Biso 1.0 Sc
Sc30 1.0000000000 0.2500000000 0.7146031987 0.4646031987  Biso 1.0 Sc
Sc31 1.0000000000 0.9646031987 0.7500000000 0.7146031987  Biso 1.0 Sc
Sc32 1.0000000000 0.5353968013 0.2500000000 0.7853968013  Biso 1.0 Sc
Sc33 1.0000000000 0.2853968013 0.0353968013 0.2500000000  Biso 1.0 Sc
Sc34 1.0000000000 0.2146031987 0.4646031987 0.7500000000  Biso 1.0 Sc
Sc35 1.0000000000 0.2500000000 0.2146031987 0.9646031987  Biso 1.0 Sc
Sc36 1.0000000000 0.7500000000 0.2853968013 0.5353968013  Biso 1.0 Sc
Sc37 1.0000000000 0.0353968013 0.2500000000 0.2853968013  Biso 1.0 Sc
Sc38 1.0000000000 0.4646031987 0.7500000000 0.2146031987  Biso 1.0 Sc
Sc39 1.0000000000 0.7146031987 0.9646031987 0.7500000000  Biso 1.0 Sc
Sc40 1.0000000000 0.7853968013 0.5353968013 0.2500000000  Biso 1.0 Sc
