# AFLOW.org Repositories
# O3Sr1Zr1   [BCT,BCT2,tI20] (STD_PRIM doi
data_O3Sr1Zr1
_pd_phase_name O3Sr1Zr1
_cell_length_a  5.9051426940
_cell_length_b  5.9051426940
_cell_length_c  5.9051426940
_cell_angle_alpha  120.7872361278
_cell_angle_beta  120.7872361278
_cell_angle_gamma  88.6417909027
_symmetry_space_group_name_H-M  'P1'
_symmetry_Int_Tables_Number  1
loop_
_symmetry_equiv_pos_site_id
_symmetry_equiv_pos_as_xyz
  1  x,y,z
loop_
 _atom_site_label
 _atom_site_occupancy
 _atom_site_fract_x
 _atom_site_fract_y
 _atom_site_fract_z
 _atom_site_thermal_displace_type
 _atom_site_B_iso_or_equiv
 _atom_site_type_symbol
O1 1.0000000000 0.7500000000 0.7500000000 0.0000000000  Biso 1.0 O
O2 1.0000000000 0.2500000000 0.2500000000 0.0000000000  Biso 1.0 O
O3 1.0000000000 0.6915752481 0.1915752481 0.8831504961  Biso 1.0 O
O4 1.0000000000 0.3084247519 0.8084247519 0.1168495039  Biso 1.0 O
O5 1.0000000000 0.8084247519 0.6915752481 0.5000000000  Biso 1.0 O
O6 1.0000000000 0.1915752481 0.3084247519 0.5000000000  Biso 1.0 O
Sr7 1.0000000000 0.7500000000 0.2500000000 0.5000000000  Biso 1.0 Sr
Sr8 1.0000000000 0.2500000000 0.7500000000 0.5000000000  Biso 1.0 Sr
Zr9 1.0000000000 0.0000000000 0.0000000000 0.0000000000  Biso 1.0 Zr
Zr10 1.0000000000 0.5000000000 0.5000000000 0.0000000000  Biso 1.0 Zr
