# AFLOW.org Repositories
# O3Sr1Tb1   [ORC,ORC,oP20] (STD_PRIM doi:
data_O3Sr1Tb1
_pd_phase_name O3Sr1Tb1
_cell_length_a  6.0445074613
_cell_length_b  6.2142805491
_cell_length_c  8.6013768870
_cell_angle_alpha  90.0000000000
_cell_angle_beta  90.0000000000
_cell_angle_gamma  90.0000000000
_symmetry_space_group_name_H-M  'P1'
_symmetry_Int_Tables_Number  1
loop_
_symmetry_equiv_pos_site_id
_symmetry_equiv_pos_as_xyz
  1  x,y,z
loop_
 _atom_site_label
 _atom_site_occupancy
 _atom_site_fract_x
 _atom_site_fract_y
 _atom_site_fract_z
 _atom_site_thermal_displace_type
 _atom_site_B_iso_or_equiv
 _atom_site_type_symbol
O1 1.0000000000 0.1141578362 0.5498745184 0.7500000000  Biso 1.0 O
O2 1.0000000000 0.6142782529 0.9500126774 0.2500000000  Biso 1.0 O
O3 1.0000000000 0.8858421638 0.4501254816 0.2500000000  Biso 1.0 O
O4 1.0000000000 0.3857217471 0.0499873226 0.7500000000  Biso 1.0 O
O5 1.0000000000 0.7940248015 0.2086377045 0.9380295616  Biso 1.0 O
O6 1.0000000000 0.2939142044 0.2916008904 0.0621459969  Biso 1.0 O
O7 1.0000000000 0.2059751985 0.7913622955 0.4380295616  Biso 1.0 O
O8 1.0000000000 0.7060857956 0.7083991096 0.5621459969  Biso 1.0 O
O9 1.0000000000 0.2059751985 0.7913622955 0.0619704384  Biso 1.0 O
O10 1.0000000000 0.7060857956 0.7083991096 0.9378540031  Biso 1.0 O
O11 1.0000000000 0.7940248015 0.2086377045 0.5619704384  Biso 1.0 O
O12 1.0000000000 0.2939142044 0.2916008904 0.4378540031  Biso 1.0 O
Sr13 1.0000000000 0.9817157109 0.9496199453 0.7500000000  Biso 1.0 Sr
Sr14 1.0000000000 0.4817384252 0.5502689290 0.2500000000  Biso 1.0 Sr
Sr15 1.0000000000 0.0182842891 0.0503800547 0.2500000000  Biso 1.0 Sr
Sr16 1.0000000000 0.5182615748 0.4497310710 0.7500000000  Biso 1.0 Sr
Tb17 1.0000000000 0.5000000000 0.0000000000 0.0000000000  Biso 1.0 Tb
Tb18 1.0000000000 0.0000000000 0.5000000000 0.0000000000  Biso 1.0 Tb
Tb19 1.0000000000 0.5000000000 0.0000000000 0.5000000000  Biso 1.0 Tb
Tb20 1.0000000000 0.0000000000 0.5000000000 0.5000000000  Biso 1.0 Tb
