# AFLOW.org Repositories
# O3Tb2   [BCC,BCC,cI80] (STD_PRIM doi:10.
data_O3Tb2
_pd_phase_name O3Tb2
_cell_length_a  9.3017305920
_cell_length_b  9.3017305920
_cell_length_c  9.3017305920
_cell_angle_alpha  109.4712206345
_cell_angle_beta  109.4712206345
_cell_angle_gamma  109.4712206345
_symmetry_space_group_name_H-M  'P1'
_symmetry_Int_Tables_Number  1
loop_
_symmetry_equiv_pos_site_id
_symmetry_equiv_pos_as_xyz
  1  x,y,z
loop_
 _atom_site_label
 _atom_site_occupancy
 _atom_site_fract_x
 _atom_site_fract_y
 _atom_site_fract_z
 _atom_site_thermal_displace_type
 _atom_site_B_iso_or_equiv
 _atom_site_type_symbol
O1 1.0000000000 0.5420542277 0.7703943487 0.5305372038  Biso 1.0 O
O2 1.0000000000 0.2601428551 0.7296056513 0.7716598790  Biso 1.0 O
O3 1.0000000000 0.2398571449 0.5115170239 0.9694627962  Biso 1.0 O
O4 1.0000000000 0.9579457723 0.9884829761 0.7283401210  Biso 1.0 O
O5 1.0000000000 0.7703943487 0.5305372038 0.5420542277  Biso 1.0 O
O6 1.0000000000 0.7296056513 0.7716598790 0.2601428551  Biso 1.0 O
O7 1.0000000000 0.5115170239 0.9694627962 0.2398571449  Biso 1.0 O
O8 1.0000000000 0.9884829761 0.7283401210 0.9579457723  Biso 1.0 O
O9 1.0000000000 0.5305372038 0.5420542277 0.7703943487  Biso 1.0 O
O10 1.0000000000 0.7716598790 0.2601428551 0.7296056513  Biso 1.0 O
O11 1.0000000000 0.9694627962 0.2398571449 0.5115170239  Biso 1.0 O
O12 1.0000000000 0.7283401210 0.9579457723 0.9884829761  Biso 1.0 O
O13 1.0000000000 0.2295678644 0.4693845358 0.4579944869  Biso 1.0 O
O14 1.0000000000 0.4886099511 0.0306154642 0.7601833287  Biso 1.0 O
O15 1.0000000000 0.0113900489 0.2715733776 0.0420055131  Biso 1.0 O
O16 1.0000000000 0.2704321356 0.2284266224 0.7398166713  Biso 1.0 O
O17 1.0000000000 0.4693845358 0.4579944869 0.2295678644  Biso 1.0 O
O18 1.0000000000 0.0306154642 0.7601833287 0.4886099511  Biso 1.0 O
O19 1.0000000000 0.2715733776 0.0420055131 0.0113900489  Biso 1.0 O
O20 1.0000000000 0.2284266224 0.7398166713 0.2704321356  Biso 1.0 O
O21 1.0000000000 0.4579944869 0.2295678644 0.4693845358  Biso 1.0 O
O22 1.0000000000 0.7601833287 0.4886099511 0.0306154642  Biso 1.0 O
O23 1.0000000000 0.0420055131 0.0113900489 0.2715733776  Biso 1.0 O
O24 1.0000000000 0.7398166713 0.2704321356 0.2284266224  Biso 1.0 O
Tb25 1.0000000000 0.4999252789 0.4999252789 0.4999252789  Biso 1.0 Tb
Tb26 1.0000000000 0.5000000000 0.0000000000 0.0000000000  Biso 1.0 Tb
Tb27 1.0000000000 0.0000000000 0.5000000000 0.0000000000  Biso 1.0 Tb
Tb28 1.0000000000 0.0000000000 0.0000000000 0.5000000000  Biso 1.0 Tb
Tb29 1.0000000000 0.7500000000 0.0322597850 0.7822597850  Biso 1.0 Tb
Tb30 1.0000000000 0.2500000000 0.4677402150 0.7177402150  Biso 1.0 Tb
Tb31 1.0000000000 0.0322597850 0.7822597850 0.7500000000  Biso 1.0 Tb
Tb32 1.0000000000 0.4677402150 0.7177402150 0.2500000000  Biso 1.0 Tb
Tb33 1.0000000000 0.7822597850 0.7500000000 0.0322597850  Biso 1.0 Tb
Tb34 1.0000000000 0.7177402150 0.2500000000 0.4677402150  Biso 1.0 Tb
Tb35 1.0000000000 0.7500000000 0.5323715729 0.2823715729  Biso 1.0 Tb
Tb36 1.0000000000 0.2500000000 0.9676284271 0.2176284271  Biso 1.0 Tb
Tb37 1.0000000000 0.5323715729 0.2823715729 0.7500000000  Biso 1.0 Tb
Tb38 1.0000000000 0.9676284271 0.2176284271 0.2500000000  Biso 1.0 Tb
Tb39 1.0000000000 0.2823715729 0.7500000000 0.5323715729  Biso 1.0 Tb
Tb40 1.0000000000 0.2176284271 0.2500000000 0.9676284271  Biso 1.0 Tb
