# AFLOW.org Repositories
# O3Tl2   [BCC,BCC,cI80] (STD_PRIM doi:10.
data_O3Tl2
_pd_phase_name O3Tl2
_cell_length_a  9.3227351733
_cell_length_b  9.3227351733
_cell_length_c  9.3227351733
_cell_angle_alpha  109.4712206345
_cell_angle_beta  109.4712206345
_cell_angle_gamma  109.4712206345
_symmetry_space_group_name_H-M  'P1'
_symmetry_Int_Tables_Number  1
loop_
_symmetry_equiv_pos_site_id
_symmetry_equiv_pos_as_xyz
  1  x,y,z
loop_
 _atom_site_label
 _atom_site_occupancy
 _atom_site_fract_x
 _atom_site_fract_y
 _atom_site_fract_z
 _atom_site_thermal_displace_type
 _atom_site_B_iso_or_equiv
 _atom_site_type_symbol
O1 1.0000000000 0.5420475594 0.7714133803 0.5375658537  Biso 1.0 O
O2 1.0000000000 0.2661524734 0.7285866197 0.7706341790  Biso 1.0 O
O3 1.0000000000 0.2338475266 0.5044817056 0.9624341463  Biso 1.0 O
O4 1.0000000000 0.9579524406 0.9955182944 0.7293658210  Biso 1.0 O
O5 1.0000000000 0.7714133803 0.5375658537 0.5420475594  Biso 1.0 O
O6 1.0000000000 0.7285866197 0.7706341790 0.2661524734  Biso 1.0 O
O7 1.0000000000 0.5044817056 0.9624341463 0.2338475266  Biso 1.0 O
O8 1.0000000000 0.9955182944 0.7293658210 0.9579524406  Biso 1.0 O
O9 1.0000000000 0.5375658537 0.5420475594 0.7714133803  Biso 1.0 O
O10 1.0000000000 0.7706341790 0.2661524734 0.7285866197  Biso 1.0 O
O11 1.0000000000 0.9624341463 0.2338475266 0.5044817056  Biso 1.0 O
O12 1.0000000000 0.7293658210 0.9579524406 0.9955182944  Biso 1.0 O
O13 1.0000000000 0.2285019215 0.4623886421 0.4577328473  Biso 1.0 O
O14 1.0000000000 0.4953442052 0.0376113579 0.7661132793  Biso 1.0 O
O15 1.0000000000 0.0046557948 0.2707690742 0.0422671527  Biso 1.0 O
O16 1.0000000000 0.2714980785 0.2292309258 0.7338867207  Biso 1.0 O
O17 1.0000000000 0.4623886421 0.4577328473 0.2285019215  Biso 1.0 O
O18 1.0000000000 0.0376113579 0.7661132793 0.4953442052  Biso 1.0 O
O19 1.0000000000 0.2707690742 0.0422671527 0.0046557948  Biso 1.0 O
O20 1.0000000000 0.2292309258 0.7338867207 0.2714980785  Biso 1.0 O
O21 1.0000000000 0.4577328473 0.2285019215 0.4623886421  Biso 1.0 O
O22 1.0000000000 0.7661132793 0.4953442052 0.0376113579  Biso 1.0 O
O23 1.0000000000 0.0422671527 0.0046557948 0.2707690742  Biso 1.0 O
O24 1.0000000000 0.7338867207 0.2714980785 0.2292309258  Biso 1.0 O
Tl25 1.0000000000 0.4997401487 0.4997401487 0.4997401487  Biso 1.0 Tl
Tl26 1.0000000000 0.5000000000 0.0000000000 0.0000000000  Biso 1.0 Tl
Tl27 1.0000000000 0.0000000000 0.5000000000 0.0000000000  Biso 1.0 Tl
Tl28 1.0000000000 0.0000000000 0.0000000000 0.5000000000  Biso 1.0 Tl
Tl29 1.0000000000 0.7500000000 0.0331993492 0.7831993492  Biso 1.0 Tl
Tl30 1.0000000000 0.2500000000 0.4668006508 0.7168006508  Biso 1.0 Tl
Tl31 1.0000000000 0.0331993492 0.7831993492 0.7500000000  Biso 1.0 Tl
Tl32 1.0000000000 0.4668006508 0.7168006508 0.2500000000  Biso 1.0 Tl
Tl33 1.0000000000 0.7831993492 0.7500000000 0.0331993492  Biso 1.0 Tl
Tl34 1.0000000000 0.7168006508 0.2500000000 0.4668006508  Biso 1.0 Tl
Tl35 1.0000000000 0.7500000000 0.5332091735 0.2832091735  Biso 1.0 Tl
Tl36 1.0000000000 0.2500000000 0.9667908265 0.2167908265  Biso 1.0 Tl
Tl37 1.0000000000 0.5332091735 0.2832091735 0.7500000000  Biso 1.0 Tl
Tl38 1.0000000000 0.9667908265 0.2167908265 0.2500000000  Biso 1.0 Tl
Tl39 1.0000000000 0.2832091735 0.7500000000 0.5332091735  Biso 1.0 Tl
Tl40 1.0000000000 0.2167908265 0.2500000000 0.9667908265  Biso 1.0 Tl
