# AFLOW.org Repositories
# O3Y2   [BCC,BCC,cI80] (STD_PRIM doi:10.1
data_O3Y2
_pd_phase_name O3Y2
_cell_length_a  9.2689713113
_cell_length_b  9.2689713113
_cell_length_c  9.2689713113
_cell_angle_alpha  109.4712206345
_cell_angle_beta  109.4712206345
_cell_angle_gamma  109.4712206345
_symmetry_space_group_name_H-M  'P1'
_symmetry_Int_Tables_Number  1
loop_
_symmetry_equiv_pos_site_id
_symmetry_equiv_pos_as_xyz
  1  x,y,z
loop_
 _atom_site_label
 _atom_site_occupancy
 _atom_site_fract_x
 _atom_site_fract_y
 _atom_site_fract_z
 _atom_site_thermal_displace_type
 _atom_site_B_iso_or_equiv
 _atom_site_type_symbol
O1 1.0000000000 0.2281523547 0.9889352522 0.4573815068  Biso 1.0 O
O2 1.0000000000 0.0315537454 0.7707708478 0.0426184932  Biso 1.0 O
O3 1.0000000000 0.4684462546 0.5110647478 0.7392171025  Biso 1.0 O
O4 1.0000000000 0.2718476453 0.7292291522 0.7607828975  Biso 1.0 O
O5 1.0000000000 0.7607828975 0.7718476453 0.2292291522  Biso 1.0 O
O6 1.0000000000 0.7392171025 0.9684462546 0.0110647478  Biso 1.0 O
O7 1.0000000000 0.0426184932 0.5315537454 0.2707708478  Biso 1.0 O
O8 1.0000000000 0.4573815068 0.7281523547 0.4889352522  Biso 1.0 O
O9 1.0000000000 0.0110647478 0.2392171025 0.4684462546  Biso 1.0 O
O10 1.0000000000 0.2292291522 0.2607828975 0.2718476453  Biso 1.0 O
O11 1.0000000000 0.4889352522 0.9573815068 0.2281523547  Biso 1.0 O
O12 1.0000000000 0.2707708478 0.5426184932 0.0315537454  Biso 1.0 O
O13 1.0000000000 0.7718476453 0.0110647478 0.5426184932  Biso 1.0 O
O14 1.0000000000 0.9684462546 0.2292291522 0.9573815068  Biso 1.0 O
O15 1.0000000000 0.5315537454 0.4889352522 0.2607828975  Biso 1.0 O
O16 1.0000000000 0.7281523547 0.2707708478 0.2392171025  Biso 1.0 O
O17 1.0000000000 0.2392171025 0.2281523547 0.7707708478  Biso 1.0 O
O18 1.0000000000 0.2607828975 0.0315537454 0.9889352522  Biso 1.0 O
O19 1.0000000000 0.9573815068 0.4684462546 0.7292291522  Biso 1.0 O
O20 1.0000000000 0.5426184932 0.2718476453 0.5110647478  Biso 1.0 O
O21 1.0000000000 0.9889352522 0.7607828975 0.5315537454  Biso 1.0 O
O22 1.0000000000 0.7707708478 0.7392171025 0.7281523547  Biso 1.0 O
O23 1.0000000000 0.5110647478 0.0426184932 0.7718476453  Biso 1.0 O
O24 1.0000000000 0.7292291522 0.4573815068 0.9684462546  Biso 1.0 O
Y25 1.0000000000 0.2500000000 0.2827609233 0.0327609233  Biso 1.0 Y
Y26 1.0000000000 0.7500000000 0.2172390767 0.4672390767  Biso 1.0 Y
Y27 1.0000000000 0.0327609233 0.7500000000 0.7827609233  Biso 1.0 Y
Y28 1.0000000000 0.4672390767 0.2500000000 0.7172390767  Biso 1.0 Y
Y29 1.0000000000 0.7172390767 0.9672390767 0.7500000000  Biso 1.0 Y
Y30 1.0000000000 0.7827609233 0.5327609233 0.2500000000  Biso 1.0 Y
Y31 1.0000000000 0.7500000000 0.7172390767 0.9672390767  Biso 1.0 Y
Y32 1.0000000000 0.2500000000 0.7827609233 0.5327609233  Biso 1.0 Y
Y33 1.0000000000 0.9672390767 0.2500000000 0.2172390767  Biso 1.0 Y
Y34 1.0000000000 0.5327609233 0.7500000000 0.2827609233  Biso 1.0 Y
Y35 1.0000000000 0.2827609233 0.0327609233 0.2500000000  Biso 1.0 Y
Y36 1.0000000000 0.2172390767 0.4672390767 0.7500000000  Biso 1.0 Y
Y37 1.0000000000 0.0000000000 0.0000000000 0.5000000000  Biso 1.0 Y
Y38 1.0000000000 0.0000000000 0.5000000000 0.0000000000  Biso 1.0 Y
Y39 1.0000000000 0.5000000000 0.5000000000 0.5000000000  Biso 1.0 Y
Y40 1.0000000000 0.5000000000 0.0000000000 0.0000000000  Biso 1.0 Y
