# AFLOW.org Repositories
# O4Pb1Sr2   [ORC,ORC,oP14] (STD_PRIM doi:
data_O4Pb1Sr2
_pd_phase_name O4Pb1Sr2
_cell_length_a  3.5573341679
_cell_length_b  6.2298651495
_cell_length_c  10.2565296935
_cell_angle_alpha  90.0000000000
_cell_angle_beta  90.0000000000
_cell_angle_gamma  90.0000000000
_symmetry_space_group_name_H-M  'P1'
_symmetry_Int_Tables_Number  1
loop_
_symmetry_equiv_pos_site_id
_symmetry_equiv_pos_as_xyz
  1  x,y,z
loop_
 _atom_site_label
 _atom_site_occupancy
 _atom_site_fract_x
 _atom_site_fract_y
 _atom_site_fract_z
 _atom_site_thermal_displace_type
 _atom_site_B_iso_or_equiv
 _atom_site_type_symbol
O1 1.0000000000 0.5000000000 0.2261414685 0.9489895414  Biso 1.0 O
O2 1.0000000000 0.5000000000 0.7738585315 0.0510104586  Biso 1.0 O
O3 1.0000000000 0.5000000000 0.2738585315 0.4489895414  Biso 1.0 O
O4 1.0000000000 0.5000000000 0.7261414685 0.5510104586  Biso 1.0 O
O5 1.0000000000 0.0000000000 0.3652607275 0.6935993464  Biso 1.0 O
O6 1.0000000000 0.0000000000 0.6347392725 0.3064006536  Biso 1.0 O
O7 1.0000000000 0.0000000000 0.1347392725 0.1935993464  Biso 1.0 O
O8 1.0000000000 0.0000000000 0.8652607275 0.8064006536  Biso 1.0 O
Pb9 1.0000000000 0.0000000000 0.0000000000 0.0000000000  Biso 1.0 Pb
Pb10 1.0000000000 0.0000000000 0.5000000000 0.5000000000  Biso 1.0 Pb
Sr11 1.0000000000 0.5000000000 0.0738056252 0.6812837194  Biso 1.0 Sr
Sr12 1.0000000000 0.5000000000 0.9261943748 0.3187162806  Biso 1.0 Sr
Sr13 1.0000000000 0.5000000000 0.4261943748 0.1812837194  Biso 1.0 Sr
Sr14 1.0000000000 0.5000000000 0.5738056252 0.8187162806  Biso 1.0 Sr
