# AFLOW.org Repositories
# O4Pd2Y1   [BCT,BCT2,tI28] (STD_PRIM doi:
data_O4Pd2Y1
_pd_phase_name O4Pd2Y1
_cell_length_a  6.5160549197
_cell_length_b  6.5160549197
_cell_length_c  6.5160549197
_cell_angle_alpha  126.9583894878
_cell_angle_beta  126.9583894878
_cell_angle_gamma  78.3185808199
_symmetry_space_group_name_H-M  'P1'
_symmetry_Int_Tables_Number  1
loop_
_symmetry_equiv_pos_site_id
_symmetry_equiv_pos_as_xyz
  1  x,y,z
loop_
 _atom_site_label
 _atom_site_occupancy
 _atom_site_fract_x
 _atom_site_fract_y
 _atom_site_fract_z
 _atom_site_thermal_displace_type
 _atom_site_B_iso_or_equiv
 _atom_site_type_symbol
O1 1.0000000000 0.2379649293 0.8342800462 0.7171406073  Biso 1.0 O
O2 1.0000000000 0.6171394389 0.5208243220 0.7828593927  Biso 1.0 O
O3 1.0000000000 0.0208243220 0.7379649293 0.9036848831  Biso 1.0 O
O4 1.0000000000 0.3342800462 0.1171394389 0.5963151169  Biso 1.0 O
O5 1.0000000000 0.7620350707 0.1657199538 0.2828593927  Biso 1.0 O
O6 1.0000000000 0.3828605611 0.4791756780 0.2171406073  Biso 1.0 O
O7 1.0000000000 0.9791756780 0.2620350707 0.0963151169  Biso 1.0 O
O8 1.0000000000 0.6657199538 0.8828605611 0.4036848831  Biso 1.0 O
Pd9 1.0000000000 0.5000000000 0.5000000000 0.0000000000  Biso 1.0 Pd
Pd10 1.0000000000 0.0000000000 0.5000000000 0.5000000000  Biso 1.0 Pd
Pd11 1.0000000000 0.0000000000 0.0000000000 0.5000000000  Biso 1.0 Pd
Pd12 1.0000000000 0.0000000000 0.5000000000 0.0000000000  Biso 1.0 Pd
Y13 1.0000000000 0.6250000000 0.8750000000 0.7500000000  Biso 1.0 Y
Y14 1.0000000000 0.3750000000 0.1250000000 0.2500000000  Biso 1.0 Y
