# AFLOW.org Repositories
# O5Ta2   [ORC,ORC,oP14] (STD_PRIM doi:10.
data_O5Ta2
_pd_phase_name O5Ta2
_cell_length_a  3.7131305865
_cell_length_b  6.5471362276
_cell_length_c  7.8078090027
_cell_angle_alpha  90.0000000000
_cell_angle_beta  90.0000000000
_cell_angle_gamma  90.0000000000
_symmetry_space_group_name_H-M  'P1'
_symmetry_Int_Tables_Number  1
loop_
_symmetry_equiv_pos_site_id
_symmetry_equiv_pos_as_xyz
  1  x,y,z
loop_
 _atom_site_label
 _atom_site_occupancy
 _atom_site_fract_x
 _atom_site_fract_y
 _atom_site_fract_z
 _atom_site_thermal_displace_type
 _atom_site_B_iso_or_equiv
 _atom_site_type_symbol
O1 1.0000000000 0.5000000000 0.0000000000 0.0000000000  Biso 1.0 O
O2 1.0000000000 0.5000000000 0.0000000000 0.5000000000  Biso 1.0 O
O3 1.0000000000 0.9986795493 0.3203190897 0.0000000000  Biso 1.0 O
O4 1.0000000000 0.0013204507 0.6796809103 0.0000000000  Biso 1.0 O
O5 1.0000000000 0.9986795493 0.6796809103 0.5000000000  Biso 1.0 O
O6 1.0000000000 0.0013204507 0.3203190897 0.5000000000  Biso 1.0 O
O7 1.0000000000 0.0000000000 0.0000000000 0.7500000000  Biso 1.0 O
O8 1.0000000000 0.0000000000 0.0000000000 0.2500000000  Biso 1.0 O
O9 1.0000000000 0.5000000000 0.5000000000 0.7500000000  Biso 1.0 O
O10 1.0000000000 0.5000000000 0.5000000000 0.2500000000  Biso 1.0 O
Ta11 1.0000000000 0.0000000000 0.0000000000 0.0000000000  Biso 1.0 Ta
Ta12 1.0000000000 0.0000000000 0.0000000000 0.5000000000  Biso 1.0 Ta
Ta13 1.0000000000 0.5000000000 0.5000000000 0.5000000000  Biso 1.0 Ta
Ta14 1.0000000000 0.5000000000 0.5000000000 0.0000000000  Biso 1.0 Ta
