# AFLOW.org Repositories
# O5Ti3   [ORCC,ORCC,oS32] (STD_PRIM doi:1
data_O5Ti3
_pd_phase_name O5Ti3
_cell_length_a  5.4778691308
_cell_length_b  5.4778691308
_cell_length_c  10.0315918125
_cell_angle_alpha  90.0000000000
_cell_angle_beta  90.0000000000
_cell_angle_gamma  137.6744700112
_symmetry_space_group_name_H-M  'P1'
_symmetry_Int_Tables_Number  1
loop_
_symmetry_equiv_pos_site_id
_symmetry_equiv_pos_as_xyz
  1  x,y,z
loop_
 _atom_site_label
 _atom_site_occupancy
 _atom_site_fract_x
 _atom_site_fract_y
 _atom_site_fract_z
 _atom_site_thermal_displace_type
 _atom_site_B_iso_or_equiv
 _atom_site_type_symbol
O1 1.0000000000 0.2577953033 0.7422046967 0.7500000000  Biso 1.0 O
O2 1.0000000000 0.7422046967 0.2577953033 0.2500000000  Biso 1.0 O
O3 1.0000000000 0.9538801289 0.0461198711 0.8811954826  Biso 1.0 O
O4 1.0000000000 0.0461198711 0.9538801289 0.3811954826  Biso 1.0 O
O5 1.0000000000 0.9538801289 0.0461198711 0.6188045174  Biso 1.0 O
O6 1.0000000000 0.0461198711 0.9538801289 0.1188045174  Biso 1.0 O
O7 1.0000000000 0.7016207956 0.2983792044 0.9183957863  Biso 1.0 O
O8 1.0000000000 0.2983792044 0.7016207956 0.4183957863  Biso 1.0 O
O9 1.0000000000 0.7016207956 0.2983792044 0.5816042137  Biso 1.0 O
O10 1.0000000000 0.2983792044 0.7016207956 0.0816042137  Biso 1.0 O
Ti11 1.0000000000 0.8173561402 0.1826438598 0.7500000000  Biso 1.0 Ti
Ti12 1.0000000000 0.1826438598 0.8173561402 0.2500000000  Biso 1.0 Ti
Ti13 1.0000000000 0.8586463264 0.1413536736 0.4339455998  Biso 1.0 Ti
Ti14 1.0000000000 0.1413536736 0.8586463264 0.9339455998  Biso 1.0 Ti
Ti15 1.0000000000 0.8586463264 0.1413536736 0.0660544002  Biso 1.0 Ti
Ti16 1.0000000000 0.1413536736 0.8586463264 0.5660544002  Biso 1.0 Ti
