# AFLOW.org Repositories
# O6Rh2U1   [TET,TET,tP18] (STD_PRIM doi:1
data_O6Rh2U1
_pd_phase_name O6Rh2U1
_cell_length_a  4.8464007769
_cell_length_b  4.8464007769
_cell_length_c  9.4968465035
_cell_angle_alpha  90.0000000000
_cell_angle_beta  90.0000000000
_cell_angle_gamma  90.0000000000
_symmetry_space_group_name_H-M  'P1'
_symmetry_Int_Tables_Number  1
loop_
_symmetry_equiv_pos_site_id
_symmetry_equiv_pos_as_xyz
  1  x,y,z
loop_
 _atom_site_label
 _atom_site_occupancy
 _atom_site_fract_x
 _atom_site_fract_y
 _atom_site_fract_z
 _atom_site_thermal_displace_type
 _atom_site_B_iso_or_equiv
 _atom_site_type_symbol
O1 1.0000000000 0.3130367106 0.3130367106 0.0000000000  Biso 1.0 O
O2 1.0000000000 0.6869632894 0.6869632894 0.0000000000  Biso 1.0 O
O3 1.0000000000 0.1869632894 0.8130367106 0.5000000000  Biso 1.0 O
O4 1.0000000000 0.8130367106 0.1869632894 0.5000000000  Biso 1.0 O
O5 1.0000000000 0.2999551265 0.2999551265 0.3334902455  Biso 1.0 O
O6 1.0000000000 0.7000448735 0.7000448735 0.3334902455  Biso 1.0 O
O7 1.0000000000 0.2000448735 0.7999551265 0.8334902455  Biso 1.0 O
O8 1.0000000000 0.7999551265 0.2000448735 0.8334902455  Biso 1.0 O
O9 1.0000000000 0.2000448735 0.7999551265 0.1665097545  Biso 1.0 O
O10 1.0000000000 0.7999551265 0.2000448735 0.1665097545  Biso 1.0 O
O11 1.0000000000 0.2999551265 0.2999551265 0.6665097545  Biso 1.0 O
O12 1.0000000000 0.7000448735 0.7000448735 0.6665097545  Biso 1.0 O
Rh13 1.0000000000 0.0000000000 0.0000000000 0.3318481003  Biso 1.0 Rh
Rh14 1.0000000000 0.5000000000 0.5000000000 0.8318481003  Biso 1.0 Rh
Rh15 1.0000000000 0.5000000000 0.5000000000 0.1681518997  Biso 1.0 Rh
Rh16 1.0000000000 0.0000000000 0.0000000000 0.6681518997  Biso 1.0 Rh
U17 1.0000000000 0.0000000000 0.0000000000 0.0000000000  Biso 1.0 U
U18 1.0000000000 0.5000000000 0.5000000000 0.5000000000  Biso 1.0 U
