# AFLOW.org Repositories
# O6Sb2Zn1   [TET,TET,tP18] (STD_PRIM doi:
data_O6Sb2Zn1
_pd_phase_name O6Sb2Zn1
_cell_length_a  4.7187774616
_cell_length_b  4.7187774616
_cell_length_c  9.3463436806
_cell_angle_alpha  90.0000000000
_cell_angle_beta  90.0000000000
_cell_angle_gamma  90.0000000000
_symmetry_space_group_name_H-M  'P1'
_symmetry_Int_Tables_Number  1
loop_
_symmetry_equiv_pos_site_id
_symmetry_equiv_pos_as_xyz
  1  x,y,z
loop_
 _atom_site_label
 _atom_site_occupancy
 _atom_site_fract_x
 _atom_site_fract_y
 _atom_site_fract_z
 _atom_site_thermal_displace_type
 _atom_site_B_iso_or_equiv
 _atom_site_type_symbol
O1 1.0000000000 0.3087381572 0.3087381572 0.0000000000  Biso 1.0 O
O2 1.0000000000 0.6912618428 0.6912618428 0.0000000000  Biso 1.0 O
O3 1.0000000000 0.1912618428 0.8087381572 0.5000000000  Biso 1.0 O
O4 1.0000000000 0.8087381572 0.1912618428 0.5000000000  Biso 1.0 O
O5 1.0000000000 0.3034022404 0.3034022404 0.3298229789  Biso 1.0 O
O6 1.0000000000 0.6965977596 0.6965977596 0.3298229789  Biso 1.0 O
O7 1.0000000000 0.1965977596 0.8034022404 0.8298229789  Biso 1.0 O
O8 1.0000000000 0.8034022404 0.1965977596 0.8298229789  Biso 1.0 O
O9 1.0000000000 0.1965977596 0.8034022404 0.1701770211  Biso 1.0 O
O10 1.0000000000 0.8034022404 0.1965977596 0.1701770211  Biso 1.0 O
O11 1.0000000000 0.3034022404 0.3034022404 0.6701770211  Biso 1.0 O
O12 1.0000000000 0.6965977596 0.6965977596 0.6701770211  Biso 1.0 O
Sb13 1.0000000000 0.0000000000 0.0000000000 0.3322201887  Biso 1.0 Sb
Sb14 1.0000000000 0.5000000000 0.5000000000 0.8322201887  Biso 1.0 Sb
Sb15 1.0000000000 0.5000000000 0.5000000000 0.1677798113  Biso 1.0 Sb
Sb16 1.0000000000 0.0000000000 0.0000000000 0.6677798113  Biso 1.0 Sb
Zn17 1.0000000000 0.0000000000 0.0000000000 0.0000000000  Biso 1.0 Zn
Zn18 1.0000000000 0.5000000000 0.5000000000 0.5000000000  Biso 1.0 Zn
