# AFLOW.org Repositories
# O6Sb4   [FCC,FCC,cF80] (STD_PRIM doi:10.
data_O6Sb4
_pd_phase_name O6Sb4
_cell_length_a  8.1219225657
_cell_length_b  8.1219225657
_cell_length_c  8.1219225657
_cell_angle_alpha  60.0000000000
_cell_angle_beta  60.0000000000
_cell_angle_gamma  60.0000000000
_symmetry_space_group_name_H-M  'P1'
_symmetry_Int_Tables_Number  1
loop_
_symmetry_equiv_pos_site_id
_symmetry_equiv_pos_as_xyz
  1  x,y,z
loop_
 _atom_site_label
 _atom_site_occupancy
 _atom_site_fract_x
 _atom_site_fract_y
 _atom_site_fract_z
 _atom_site_thermal_displace_type
 _atom_site_B_iso_or_equiv
 _atom_site_type_symbol
O1 1.0000000000 0.1851758527 0.8148241473 0.8148241473  Biso 1.0 O
O2 1.0000000000 0.8148241473 0.1851758527 0.1851758527  Biso 1.0 O
O3 1.0000000000 0.8148241473 0.8148241473 0.1851758527  Biso 1.0 O
O4 1.0000000000 0.1851758527 0.1851758527 0.8148241473  Biso 1.0 O
O5 1.0000000000 0.8148241473 0.1851758527 0.8148241473  Biso 1.0 O
O6 1.0000000000 0.1851758527 0.8148241473 0.1851758527  Biso 1.0 O
O7 1.0000000000 0.5648241473 0.5648241473 0.9351758527  Biso 1.0 O
O8 1.0000000000 0.9351758527 0.9351758527 0.5648241473  Biso 1.0 O
O9 1.0000000000 0.9351758527 0.5648241473 0.5648241473  Biso 1.0 O
O10 1.0000000000 0.5648241473 0.9351758527 0.9351758527  Biso 1.0 O
O11 1.0000000000 0.9351758527 0.5648241473 0.9351758527  Biso 1.0 O
O12 1.0000000000 0.5648241473 0.9351758527 0.5648241473  Biso 1.0 O
Sb13 1.0000000000 0.1125076420 0.1125076420 0.1125076420  Biso 1.0 Sb
Sb14 1.0000000000 0.1125076420 0.6624770741 0.1125076420  Biso 1.0 Sb
Sb15 1.0000000000 0.1125076420 0.1125076420 0.6624770741  Biso 1.0 Sb
Sb16 1.0000000000 0.6624770741 0.1125076420 0.1125076420  Biso 1.0 Sb
Sb17 1.0000000000 0.6374923580 0.0875229259 0.6374923580  Biso 1.0 Sb
Sb18 1.0000000000 0.6374923580 0.6374923580 0.6374923580  Biso 1.0 Sb
Sb19 1.0000000000 0.6374923580 0.6374923580 0.0875229259  Biso 1.0 Sb
Sb20 1.0000000000 0.0875229259 0.6374923580 0.6374923580  Biso 1.0 Sb
