# AFLOW.org Repositories
# O7P2Zr1   [CUB,CUB,cP40] (STD_PRIM doi:1
data_O7P2Zr1
_pd_phase_name O7P2Zr1
_cell_length_a  8.5519674914
_cell_length_b  8.5519674914
_cell_length_c  8.5519674914
_cell_angle_alpha  90.0000000000
_cell_angle_beta  90.0000000000
_cell_angle_gamma  90.0000000000
_symmetry_space_group_name_H-M  'P1'
_symmetry_Int_Tables_Number  1
loop_
_symmetry_equiv_pos_site_id
_symmetry_equiv_pos_as_xyz
  1  x,y,z
loop_
 _atom_site_label
 _atom_site_occupancy
 _atom_site_fract_x
 _atom_site_fract_y
 _atom_site_fract_z
 _atom_site_thermal_displace_type
 _atom_site_B_iso_or_equiv
 _atom_site_type_symbol
O1 1.0000000000 0.5576762892 0.7751671184 0.4233804047  Biso 1.0 O
O2 1.0000000000 0.9423237108 0.2248328816 0.9233804047  Biso 1.0 O
O3 1.0000000000 0.4423237108 0.2751671184 0.0766195953  Biso 1.0 O
O4 1.0000000000 0.0576762892 0.7248328816 0.5766195953  Biso 1.0 O
O5 1.0000000000 0.5766195953 0.5576762892 0.2248328816  Biso 1.0 O
O6 1.0000000000 0.0766195953 0.9423237108 0.7751671184  Biso 1.0 O
O7 1.0000000000 0.9233804047 0.4423237108 0.7248328816  Biso 1.0 O
O8 1.0000000000 0.4233804047 0.0576762892 0.2751671184  Biso 1.0 O
O9 1.0000000000 0.7751671184 0.5766195953 0.4423237108  Biso 1.0 O
O10 1.0000000000 0.2248328816 0.0766195953 0.0576762892  Biso 1.0 O
O11 1.0000000000 0.2751671184 0.9233804047 0.5576762892  Biso 1.0 O
O12 1.0000000000 0.7248328816 0.4233804047 0.9423237108  Biso 1.0 O
O13 1.0000000000 0.4423237108 0.2248328816 0.5766195953  Biso 1.0 O
O14 1.0000000000 0.0576762892 0.7751671184 0.0766195953  Biso 1.0 O
O15 1.0000000000 0.5576762892 0.7248328816 0.9233804047  Biso 1.0 O
O16 1.0000000000 0.9423237108 0.2751671184 0.4233804047  Biso 1.0 O
O17 1.0000000000 0.4233804047 0.4423237108 0.7751671184  Biso 1.0 O
O18 1.0000000000 0.9233804047 0.0576762892 0.2248328816  Biso 1.0 O
O19 1.0000000000 0.0766195953 0.5576762892 0.2751671184  Biso 1.0 O
O20 1.0000000000 0.5766195953 0.9423237108 0.7248328816  Biso 1.0 O
O21 1.0000000000 0.2248328816 0.4233804047 0.5576762892  Biso 1.0 O
O22 1.0000000000 0.7751671184 0.9233804047 0.9423237108  Biso 1.0 O
O23 1.0000000000 0.7248328816 0.0766195953 0.4423237108  Biso 1.0 O
O24 1.0000000000 0.2751671184 0.5766195953 0.0576762892  Biso 1.0 O
O25 1.0000000000 0.5000000000 0.5000000000 0.5000000000  Biso 1.0 O
O26 1.0000000000 0.0000000000 0.5000000000 0.0000000000  Biso 1.0 O
O27 1.0000000000 0.5000000000 0.0000000000 0.0000000000  Biso 1.0 O
O28 1.0000000000 0.0000000000 0.0000000000 0.5000000000  Biso 1.0 O
P29 1.0000000000 0.6069022216 0.6069022216 0.3930977784  Biso 1.0 P
P30 1.0000000000 0.8930977784 0.3930977784 0.8930977784  Biso 1.0 P
P31 1.0000000000 0.3930977784 0.1069022216 0.1069022216  Biso 1.0 P
P32 1.0000000000 0.1069022216 0.8930977784 0.6069022216  Biso 1.0 P
P33 1.0000000000 0.3930977784 0.3930977784 0.6069022216  Biso 1.0 P
P34 1.0000000000 0.1069022216 0.6069022216 0.1069022216  Biso 1.0 P
P35 1.0000000000 0.6069022216 0.8930977784 0.8930977784  Biso 1.0 P
P36 1.0000000000 0.8930977784 0.1069022216 0.3930977784  Biso 1.0 P
Zr37 1.0000000000 0.0000000000 0.0000000000 0.0000000000  Biso 1.0 Zr
Zr38 1.0000000000 0.5000000000 0.0000000000 0.5000000000  Biso 1.0 Zr
Zr39 1.0000000000 0.0000000000 0.5000000000 0.5000000000  Biso 1.0 Zr
Zr40 1.0000000000 0.5000000000 0.5000000000 0.0000000000  Biso 1.0 Zr
