# AFLOW.org Repositories
# O7P2Ti1   [CUB,CUB,cP40] (STD_PRIM doi:1
data_O7P2Ti1
_pd_phase_name O7P2Ti1
_cell_length_a  8.2541703252
_cell_length_b  8.2541703252
_cell_length_c  8.2541703252
_cell_angle_alpha  90.0000000000
_cell_angle_beta  90.0000000000
_cell_angle_gamma  90.0000000000
_symmetry_space_group_name_H-M  'P1'
_symmetry_Int_Tables_Number  1
loop_
_symmetry_equiv_pos_site_id
_symmetry_equiv_pos_as_xyz
  1  x,y,z
loop_
 _atom_site_label
 _atom_site_occupancy
 _atom_site_fract_x
 _atom_site_fract_y
 _atom_site_fract_z
 _atom_site_thermal_displace_type
 _atom_site_B_iso_or_equiv
 _atom_site_type_symbol
O1 1.0000000000 0.2849663672 0.9168838369 0.5584501691  Biso 1.0 O
O2 1.0000000000 0.2150336328 0.0831161631 0.0584501691  Biso 1.0 O
O3 1.0000000000 0.7150336328 0.4168838369 0.9415498309  Biso 1.0 O
O4 1.0000000000 0.7849663672 0.5831161631 0.4415498309  Biso 1.0 O
O5 1.0000000000 0.4415498309 0.2849663672 0.0831161631  Biso 1.0 O
O6 1.0000000000 0.9415498309 0.2150336328 0.9168838369  Biso 1.0 O
O7 1.0000000000 0.0584501691 0.7150336328 0.5831161631  Biso 1.0 O
O8 1.0000000000 0.5584501691 0.7849663672 0.4168838369  Biso 1.0 O
O9 1.0000000000 0.9168838369 0.4415498309 0.7150336328  Biso 1.0 O
O10 1.0000000000 0.0831161631 0.9415498309 0.7849663672  Biso 1.0 O
O11 1.0000000000 0.4168838369 0.0584501691 0.2849663672  Biso 1.0 O
O12 1.0000000000 0.5831161631 0.5584501691 0.2150336328  Biso 1.0 O
O13 1.0000000000 0.7150336328 0.0831161631 0.4415498309  Biso 1.0 O
O14 1.0000000000 0.7849663672 0.9168838369 0.9415498309  Biso 1.0 O
O15 1.0000000000 0.2849663672 0.5831161631 0.0584501691  Biso 1.0 O
O16 1.0000000000 0.2150336328 0.4168838369 0.5584501691  Biso 1.0 O
O17 1.0000000000 0.5584501691 0.7150336328 0.9168838369  Biso 1.0 O
O18 1.0000000000 0.0584501691 0.7849663672 0.0831161631  Biso 1.0 O
O19 1.0000000000 0.9415498309 0.2849663672 0.4168838369  Biso 1.0 O
O20 1.0000000000 0.4415498309 0.2150336328 0.5831161631  Biso 1.0 O
O21 1.0000000000 0.0831161631 0.5584501691 0.2849663672  Biso 1.0 O
O22 1.0000000000 0.9168838369 0.0584501691 0.2150336328  Biso 1.0 O
O23 1.0000000000 0.5831161631 0.9415498309 0.7150336328  Biso 1.0 O
O24 1.0000000000 0.4168838369 0.4415498309 0.7849663672  Biso 1.0 O
O25 1.0000000000 0.5000000000 0.5000000000 0.5000000000  Biso 1.0 O
O26 1.0000000000 0.0000000000 0.5000000000 0.0000000000  Biso 1.0 O
O27 1.0000000000 0.5000000000 0.0000000000 0.0000000000  Biso 1.0 O
O28 1.0000000000 0.0000000000 0.0000000000 0.5000000000  Biso 1.0 O
P29 1.0000000000 0.3891768319 0.3891768319 0.6108231681  Biso 1.0 P
P30 1.0000000000 0.1108231681 0.6108231681 0.1108231681  Biso 1.0 P
P31 1.0000000000 0.6108231681 0.8891768319 0.8891768319  Biso 1.0 P
P32 1.0000000000 0.8891768319 0.1108231681 0.3891768319  Biso 1.0 P
P33 1.0000000000 0.6108231681 0.6108231681 0.3891768319  Biso 1.0 P
P34 1.0000000000 0.8891768319 0.3891768319 0.8891768319  Biso 1.0 P
P35 1.0000000000 0.3891768319 0.1108231681 0.1108231681  Biso 1.0 P
P36 1.0000000000 0.1108231681 0.8891768319 0.6108231681  Biso 1.0 P
Ti37 1.0000000000 0.5000000000 0.0000000000 0.5000000000  Biso 1.0 Ti
Ti38 1.0000000000 0.0000000000 0.0000000000 0.0000000000  Biso 1.0 Ti
Ti39 1.0000000000 0.5000000000 0.5000000000 0.0000000000  Biso 1.0 Ti
Ti40 1.0000000000 0.0000000000 0.5000000000 0.5000000000  Biso 1.0 Ti
