# AFLOW.org Repositories
# O7P2Si1   [CUB,CUB,cP40] (STD_PRIM doi:1
data_O7P2Si1
_pd_phase_name O7P2Si1
_cell_length_a  7.7323339468
_cell_length_b  7.7323339468
_cell_length_c  7.7323339468
_cell_angle_alpha  90.0000000000
_cell_angle_beta  90.0000000000
_cell_angle_gamma  90.0000000000
_symmetry_space_group_name_H-M  'P1'
_symmetry_Int_Tables_Number  1
loop_
_symmetry_equiv_pos_site_id
_symmetry_equiv_pos_as_xyz
  1  x,y,z
loop_
 _atom_site_label
 _atom_site_occupancy
 _atom_site_fract_x
 _atom_site_fract_y
 _atom_site_fract_z
 _atom_site_thermal_displace_type
 _atom_site_B_iso_or_equiv
 _atom_site_type_symbol
O1 1.0000000000 0.5000000000 0.5000000000 0.5000000000  Biso 1.0 O
O2 1.0000000000 0.0000000000 0.5000000000 0.0000000000  Biso 1.0 O
O3 1.0000000000 0.5000000000 0.0000000000 0.0000000000  Biso 1.0 O
O4 1.0000000000 0.0000000000 0.0000000000 0.5000000000  Biso 1.0 O
O5 1.0000000000 0.5606772916 0.8046284561 0.3987731937  Biso 1.0 O
O6 1.0000000000 0.9393227084 0.1953715439 0.8987731937  Biso 1.0 O
O7 1.0000000000 0.4393227084 0.3046284561 0.1012268063  Biso 1.0 O
O8 1.0000000000 0.0606772916 0.6953715439 0.6012268063  Biso 1.0 O
O9 1.0000000000 0.6012268063 0.5606772916 0.1953715439  Biso 1.0 O
O10 1.0000000000 0.1012268063 0.9393227084 0.8046284561  Biso 1.0 O
O11 1.0000000000 0.8987731937 0.4393227084 0.6953715439  Biso 1.0 O
O12 1.0000000000 0.3987731937 0.0606772916 0.3046284561  Biso 1.0 O
O13 1.0000000000 0.8046284561 0.6012268063 0.4393227084  Biso 1.0 O
O14 1.0000000000 0.1953715439 0.1012268063 0.0606772916  Biso 1.0 O
O15 1.0000000000 0.3046284561 0.8987731937 0.5606772916  Biso 1.0 O
O16 1.0000000000 0.6953715439 0.3987731937 0.9393227084  Biso 1.0 O
O17 1.0000000000 0.4393227084 0.1953715439 0.6012268063  Biso 1.0 O
O18 1.0000000000 0.0606772916 0.8046284561 0.1012268063  Biso 1.0 O
O19 1.0000000000 0.5606772916 0.6953715439 0.8987731937  Biso 1.0 O
O20 1.0000000000 0.9393227084 0.3046284561 0.3987731937  Biso 1.0 O
O21 1.0000000000 0.3987731937 0.4393227084 0.8046284561  Biso 1.0 O
O22 1.0000000000 0.8987731937 0.0606772916 0.1953715439  Biso 1.0 O
O23 1.0000000000 0.1012268063 0.5606772916 0.3046284561  Biso 1.0 O
O24 1.0000000000 0.6012268063 0.9393227084 0.6953715439  Biso 1.0 O
O25 1.0000000000 0.1953715439 0.3987731937 0.5606772916  Biso 1.0 O
O26 1.0000000000 0.8046284561 0.8987731937 0.9393227084  Biso 1.0 O
O27 1.0000000000 0.6953715439 0.1012268063 0.4393227084  Biso 1.0 O
O28 1.0000000000 0.3046284561 0.6012268063 0.0606772916  Biso 1.0 O
P29 1.0000000000 0.6189620375 0.6189620375 0.3810379625  Biso 1.0 P
P30 1.0000000000 0.8810379625 0.3810379625 0.8810379625  Biso 1.0 P
P31 1.0000000000 0.3810379625 0.1189620375 0.1189620375  Biso 1.0 P
P32 1.0000000000 0.1189620375 0.8810379625 0.6189620375  Biso 1.0 P
P33 1.0000000000 0.3810379625 0.3810379625 0.6189620375  Biso 1.0 P
P34 1.0000000000 0.1189620375 0.6189620375 0.1189620375  Biso 1.0 P
P35 1.0000000000 0.6189620375 0.8810379625 0.8810379625  Biso 1.0 P
P36 1.0000000000 0.8810379625 0.1189620375 0.3810379625  Biso 1.0 P
Si37 1.0000000000 0.0000000000 0.0000000000 0.0000000000  Biso 1.0 Si
Si38 1.0000000000 0.5000000000 0.0000000000 0.5000000000  Biso 1.0 Si
Si39 1.0000000000 0.0000000000 0.5000000000 0.5000000000  Biso 1.0 Si
Si40 1.0000000000 0.5000000000 0.5000000000 0.0000000000  Biso 1.0 Si
