# AFLOW.org Repositories
# O7Tb2Ti2   [FCC,FCC,cF88] (STD_PRIM doi:
data_O7Tb2Ti2
_pd_phase_name O7Tb2Ti2
_cell_length_a  7.2471251389
_cell_length_b  7.2471251389
_cell_length_c  7.2471251389
_cell_angle_alpha  60.0000000000
_cell_angle_beta  60.0000000000
_cell_angle_gamma  60.0000000000
_symmetry_space_group_name_H-M  'P1'
_symmetry_Int_Tables_Number  1
loop_
_symmetry_equiv_pos_site_id
_symmetry_equiv_pos_as_xyz
  1  x,y,z
loop_
 _atom_site_label
 _atom_site_occupancy
 _atom_site_fract_x
 _atom_site_fract_y
 _atom_site_fract_z
 _atom_site_thermal_displace_type
 _atom_site_B_iso_or_equiv
 _atom_site_type_symbol
O1 1.0000000000 0.3307617503 0.9192382497 0.4192382497  Biso 1.0 O
O2 1.0000000000 0.9192382497 0.3307617503 0.8307617503  Biso 1.0 O
O3 1.0000000000 0.9192382497 0.3307617503 0.4192382497  Biso 1.0 O
O4 1.0000000000 0.3307617503 0.9192382497 0.8307617503  Biso 1.0 O
O5 1.0000000000 0.3307617503 0.3307617503 0.4192382497  Biso 1.0 O
O6 1.0000000000 0.9192382497 0.9192382497 0.8307617503  Biso 1.0 O
O7 1.0000000000 0.6692382497 0.0807617503 0.1692382497  Biso 1.0 O
O8 1.0000000000 0.0807617503 0.6692382497 0.5807617503  Biso 1.0 O
O9 1.0000000000 0.0807617503 0.6692382497 0.1692382497  Biso 1.0 O
O10 1.0000000000 0.6692382497 0.0807617503 0.5807617503  Biso 1.0 O
O11 1.0000000000 0.6692382497 0.6692382497 0.5807617503  Biso 1.0 O
O12 1.0000000000 0.0807617503 0.0807617503 0.1692382497  Biso 1.0 O
O13 1.0000000000 0.3750000000 0.3750000000 0.8750000000  Biso 1.0 O
O14 1.0000000000 0.6250000000 0.6250000000 0.1250000000  Biso 1.0 O
Tb15 1.0000000000 0.5000000000 0.5000000000 0.5000000000  Biso 1.0 Tb
Tb16 1.0000000000 0.5000000000 0.5000000000 0.0000000000  Biso 1.0 Tb
Tb17 1.0000000000 0.0000000000 0.5000000000 0.0000000000  Biso 1.0 Tb
Tb18 1.0000000000 0.5000000000 0.0000000000 0.0000000000  Biso 1.0 Tb
Ti19 1.0000000000 0.0000000000 0.0000000000 0.0000000000  Biso 1.0 Ti
Ti20 1.0000000000 0.0000000000 0.0000000000 0.5000000000  Biso 1.0 Ti
Ti21 1.0000000000 0.5000000000 0.0000000000 0.5000000000  Biso 1.0 Ti
Ti22 1.0000000000 0.0000000000 0.5000000000 0.5000000000  Biso 1.0 Ti
