# AFLOW.org Repositories
# Os0.67W1.33   [TET,TET,tP30] (STD_PRIM d
data_Os0.67W1.33
_pd_phase_name Os0.67W1.33
_cell_length_a  9.7284458537
_cell_length_b  9.7284458537
_cell_length_c  5.0129422286
_cell_angle_alpha  90.0000000000
_cell_angle_beta  90.0000000000
_cell_angle_gamma  90.0000000000
_symmetry_space_group_name_H-M  'P1'
_symmetry_Int_Tables_Number  1
loop_
_symmetry_equiv_pos_site_id
_symmetry_equiv_pos_as_xyz
  1  x,y,z
loop_
 _atom_site_label
 _atom_site_occupancy
 _atom_site_fract_x
 _atom_site_fract_y
 _atom_site_fract_z
 _atom_site_thermal_displace_type
 _atom_site_B_iso_or_equiv
 _atom_site_type_symbol
Os1 1.0000000000 0.0000000000 0.0000000000 0.0000000000  Biso 1.0 Os
Os2 1.0000000000 0.5000000000 0.5000000000 0.5000000000  Biso 1.0 Os
Os3 1.0000000000 0.7368728047 0.0696220028 0.0000000000  Biso 1.0 Os
Os4 1.0000000000 0.2631271953 0.9303779972 0.0000000000  Biso 1.0 Os
Os5 1.0000000000 0.4303779972 0.2368728047 0.5000000000  Biso 1.0 Os
Os6 1.0000000000 0.5696220028 0.7631271953 0.5000000000  Biso 1.0 Os
Os7 1.0000000000 0.7631271953 0.5696220028 0.5000000000  Biso 1.0 Os
Os8 1.0000000000 0.2368728047 0.4303779972 0.5000000000  Biso 1.0 Os
Os9 1.0000000000 0.0696220028 0.7368728047 0.0000000000  Biso 1.0 Os
Os10 1.0000000000 0.9303779972 0.2631271953 0.0000000000  Biso 1.0 Os
W11 1.0000000000 0.3965153889 0.3965153889 0.0000000000  Biso 1.0 W
W12 1.0000000000 0.6034846111 0.6034846111 0.0000000000  Biso 1.0 W
W13 1.0000000000 0.1034846111 0.8965153889 0.5000000000  Biso 1.0 W
W14 1.0000000000 0.8965153889 0.1034846111 0.5000000000  Biso 1.0 W
W15 1.0000000000 0.4623773355 0.1306350641 0.0000000000  Biso 1.0 W
W16 1.0000000000 0.5376226645 0.8693649359 0.0000000000  Biso 1.0 W
W17 1.0000000000 0.3693649359 0.9623773355 0.5000000000  Biso 1.0 W
W18 1.0000000000 0.6306350641 0.0376226645 0.5000000000  Biso 1.0 W
W19 1.0000000000 0.0376226645 0.6306350641 0.5000000000  Biso 1.0 W
W20 1.0000000000 0.9623773355 0.3693649359 0.5000000000  Biso 1.0 W
W21 1.0000000000 0.1306350641 0.4623773355 0.0000000000  Biso 1.0 W
W22 1.0000000000 0.8693649359 0.5376226645 0.0000000000  Biso 1.0 W
W23 1.0000000000 0.1797766790 0.1797766790 0.2505670083  Biso 1.0 W
W24 1.0000000000 0.8202233210 0.8202233210 0.2505670083  Biso 1.0 W
W25 1.0000000000 0.3202233210 0.6797766790 0.7505670083  Biso 1.0 W
W26 1.0000000000 0.6797766790 0.3202233210 0.7505670083  Biso 1.0 W
W27 1.0000000000 0.3202233210 0.6797766790 0.2494329917  Biso 1.0 W
W28 1.0000000000 0.6797766790 0.3202233210 0.2494329917  Biso 1.0 W
W29 1.0000000000 0.1797766790 0.1797766790 0.7494329917  Biso 1.0 W
W30 1.0000000000 0.8202233210 0.8202233210 0.7494329917  Biso 1.0 W
