# AFLOW.org Repositories
# Os1Sb2   [ORC,ORC,oP6] (STD_PRIM doi:10.
data_Os1Sb2
_pd_phase_name Os1Sb2
_cell_length_a  3.2479282067
_cell_length_b  5.9994450160
_cell_length_c  6.7709147482
_cell_angle_alpha  90.0000000000
_cell_angle_beta  90.0000000000
_cell_angle_gamma  90.0000000000
_symmetry_space_group_name_H-M  'P1'
_symmetry_Int_Tables_Number  1
loop_
_symmetry_equiv_pos_site_id
_symmetry_equiv_pos_as_xyz
  1  x,y,z
loop_
 _atom_site_label
 _atom_site_occupancy
 _atom_site_fract_x
 _atom_site_fract_y
 _atom_site_fract_z
 _atom_site_thermal_displace_type
 _atom_site_B_iso_or_equiv
 _atom_site_type_symbol
Os1 1.0000000000 0.0000000000 0.0000000000 0.0000000000  Biso 1.0 Os
Os2 1.0000000000 0.5000000000 0.5000000000 0.5000000000  Biso 1.0 Os
Sb3 1.0000000000 0.0000000000 0.1813703742 0.6416229317  Biso 1.0 Sb
Sb4 1.0000000000 0.0000000000 0.8186296258 0.3583770683  Biso 1.0 Sb
Sb5 1.0000000000 0.5000000000 0.3186296258 0.1416229317  Biso 1.0 Sb
Sb6 1.0000000000 0.5000000000 0.6813703742 0.8583770683  Biso 1.0 Sb
