# AFLOW.org Repositories
# Os2Sc1   [HEX,HEX,hP12] (STD_PRIM doi:10
data_Os2Sc1
_pd_phase_name Os2Sc1
_cell_length_a  5.2073432497
_cell_length_b  5.2073432497
_cell_length_c  8.6708445386
_cell_angle_alpha  90.0000000000
_cell_angle_beta  90.0000000000
_cell_angle_gamma  120.0000000000
_symmetry_space_group_name_H-M  'P1'
_symmetry_Int_Tables_Number  1
loop_
_symmetry_equiv_pos_site_id
_symmetry_equiv_pos_as_xyz
  1  x,y,z
loop_
 _atom_site_label
 _atom_site_occupancy
 _atom_site_fract_x
 _atom_site_fract_y
 _atom_site_fract_z
 _atom_site_thermal_displace_type
 _atom_site_B_iso_or_equiv
 _atom_site_type_symbol
Os1 1.0000000000 0.0000000000 0.0000000000 0.0000000000  Biso 1.0 Os
Os2 1.0000000000 0.0000000000 0.0000000000 0.5000000000  Biso 1.0 Os
Os3 1.0000000000 0.8275284434 0.1724901855 0.2500000000  Biso 1.0 Os
Os4 1.0000000000 0.8275284434 0.6550382578 0.2500000000  Biso 1.0 Os
Os5 1.0000000000 0.3449600316 0.1724800158 0.2500000000  Biso 1.0 Os
Os6 1.0000000000 0.1724715566 0.8275098145 0.7500000000  Biso 1.0 Os
Os7 1.0000000000 0.1724715566 0.3449617422 0.7500000000  Biso 1.0 Os
Os8 1.0000000000 0.6550399684 0.8275199842 0.7500000000  Biso 1.0 Os
Sc9 1.0000000000 0.3333463229 0.6666731614 0.0661907232  Biso 1.0 Sc
Sc10 1.0000000000 0.6666536771 0.3333268386 0.5661907232  Biso 1.0 Sc
Sc11 1.0000000000 0.6666536771 0.3333268386 0.9338092768  Biso 1.0 Sc
Sc12 1.0000000000 0.3333463229 0.6666731614 0.4338092768  Biso 1.0 Sc
