# AFLOW.org Repositories
# Os2Th1   [FCC,FCC,cF24] (STD_PRIM doi:10
data_Os2Th1
_pd_phase_name Os2Th1
_cell_length_a  5.5468705589
_cell_length_b  5.5468705589
_cell_length_c  5.5468705589
_cell_angle_alpha  60.0000000000
_cell_angle_beta  60.0000000000
_cell_angle_gamma  60.0000000000
_symmetry_space_group_name_H-M  'P1'
_symmetry_Int_Tables_Number  1
loop_
_symmetry_equiv_pos_site_id
_symmetry_equiv_pos_as_xyz
  1  x,y,z
loop_
 _atom_site_label
 _atom_site_occupancy
 _atom_site_fract_x
 _atom_site_fract_y
 _atom_site_fract_z
 _atom_site_thermal_displace_type
 _atom_site_B_iso_or_equiv
 _atom_site_type_symbol
Os1 1.0000000000 0.1250000000 0.6250000000 0.6250000000  Biso 1.0 Os
Os2 1.0000000000 0.6250000000 0.1250000000 0.6250000000  Biso 1.0 Os
Os3 1.0000000000 0.6250000000 0.6250000000 0.1250000000  Biso 1.0 Os
Os4 1.0000000000 0.6250000000 0.6250000000 0.6250000000  Biso 1.0 Os
Th5 1.0000000000 0.0000000000 0.0000000000 0.0000000000  Biso 1.0 Th
Th6 1.0000000000 0.2500000000 0.2500000000 0.2500000000  Biso 1.0 Th
