# AFLOW.org Repositories
# Os2Tb1   [HEX,HEX,hP12] (STD_PRIM doi:10
data_Os2Tb1
_pd_phase_name Os2Tb1
_cell_length_a  5.2795928999
_cell_length_b  5.2795928999
_cell_length_c  9.0221552313
_cell_angle_alpha  90.0000000000
_cell_angle_beta  90.0000000000
_cell_angle_gamma  120.0000000000
_symmetry_space_group_name_H-M  'P1'
_symmetry_Int_Tables_Number  1
loop_
_symmetry_equiv_pos_site_id
_symmetry_equiv_pos_as_xyz
  1  x,y,z
loop_
 _atom_site_label
 _atom_site_occupancy
 _atom_site_fract_x
 _atom_site_fract_y
 _atom_site_fract_z
 _atom_site_thermal_displace_type
 _atom_site_B_iso_or_equiv
 _atom_site_type_symbol
Os1 1.0000000000 0.0000000000 0.0000000000 0.0000000000  Biso 1.0 Os
Os2 1.0000000000 0.0000000000 0.0000000000 0.5000000000  Biso 1.0 Os
Os3 1.0000000000 0.8295684422 0.1704623378 0.2500000000  Biso 1.0 Os
Os4 1.0000000000 0.8295684422 0.6591061044 0.2500000000  Biso 1.0 Os
Os5 1.0000000000 0.3408898341 0.1704449170 0.2500000000  Biso 1.0 Os
Os6 1.0000000000 0.1704315578 0.8295376622 0.7500000000  Biso 1.0 Os
Os7 1.0000000000 0.1704315578 0.3408938956 0.7500000000  Biso 1.0 Os
Os8 1.0000000000 0.6591101659 0.8295550830 0.7500000000  Biso 1.0 Os
Tb9 1.0000000000 0.3333396057 0.6666698028 0.0656296355  Biso 1.0 Tb
Tb10 1.0000000000 0.6666603943 0.3333301972 0.5656296355  Biso 1.0 Tb
Tb11 1.0000000000 0.6666603943 0.3333301972 0.9343703645  Biso 1.0 Tb
Tb12 1.0000000000 0.3333396057 0.6666698028 0.4343703645  Biso 1.0 Tb
