# AFLOW.org Repositories
# Os2Y1   [HEX,HEX,hP12] (STD_PRIM doi:10.
data_Os2Y1
_pd_phase_name Os2Y1
_cell_length_a  5.2789513242
_cell_length_b  5.2789513242
_cell_length_c  8.9903500558
_cell_angle_alpha  90.0000000000
_cell_angle_beta  90.0000000000
_cell_angle_gamma  120.0000000000
_symmetry_space_group_name_H-M  'P1'
_symmetry_Int_Tables_Number  1
loop_
_symmetry_equiv_pos_site_id
_symmetry_equiv_pos_as_xyz
  1  x,y,z
loop_
 _atom_site_label
 _atom_site_occupancy
 _atom_site_fract_x
 _atom_site_fract_y
 _atom_site_fract_z
 _atom_site_thermal_displace_type
 _atom_site_B_iso_or_equiv
 _atom_site_type_symbol
Os1 1.0000000000 0.0000000000 0.0000000000 0.0000000000  Biso 1.0 Os
Os2 1.0000000000 0.0000000000 0.0000000000 0.5000000000  Biso 1.0 Os
Os3 1.0000000000 0.8294332369 0.1705895835 0.2500000000  Biso 1.0 Os
Os4 1.0000000000 0.8294332369 0.6588436534 0.2500000000  Biso 1.0 Os
Os5 1.0000000000 0.3411518872 0.1705759436 0.2500000000  Biso 1.0 Os
Os6 1.0000000000 0.1705667631 0.8294104165 0.7500000000  Biso 1.0 Os
Os7 1.0000000000 0.1705667631 0.3411563466 0.7500000000  Biso 1.0 Os
Os8 1.0000000000 0.6588481128 0.8294240564 0.7500000000  Biso 1.0 Os
Y9 1.0000000000 0.3333386760 0.6666693380 0.0657892986  Biso 1.0 Y
Y10 1.0000000000 0.6666613240 0.3333306620 0.5657892986  Biso 1.0 Y
Y11 1.0000000000 0.6666613240 0.3333306620 0.9342107014  Biso 1.0 Y
Y12 1.0000000000 0.3333386760 0.6666693380 0.4342107014  Biso 1.0 Y
