# AFLOW.org Repositories
# Os4Sc11   [FCC,FCC,cF120] (STD_PRIM doi:
data_Os4Sc11
_pd_phase_name Os4Sc11
_cell_length_a  9.6072912957
_cell_length_b  9.6072912957
_cell_length_c  9.6072912957
_cell_angle_alpha  60.0000000000
_cell_angle_beta  60.0000000000
_cell_angle_gamma  60.0000000000
_symmetry_space_group_name_H-M  'P1'
_symmetry_Int_Tables_Number  1
loop_
_symmetry_equiv_pos_site_id
_symmetry_equiv_pos_as_xyz
  1  x,y,z
loop_
 _atom_site_label
 _atom_site_occupancy
 _atom_site_fract_x
 _atom_site_fract_y
 _atom_site_fract_z
 _atom_site_thermal_displace_type
 _atom_site_B_iso_or_equiv
 _atom_site_type_symbol
Os1 1.0000000000 0.0000000000 0.0000000000 0.0000000000  Biso 1.0 Os
Os2 1.0000000000 0.5000000000 0.5000000000 0.5000000000  Biso 1.0 Os
Os3 1.0000000000 0.0000000000 0.0000000000 0.5000000000  Biso 1.0 Os
Os4 1.0000000000 0.5000000000 0.5000000000 0.0000000000  Biso 1.0 Os
Os5 1.0000000000 0.0000000000 0.5000000000 0.5000000000  Biso 1.0 Os
Os6 1.0000000000 0.5000000000 0.0000000000 0.0000000000  Biso 1.0 Os
Os7 1.0000000000 0.5000000000 0.0000000000 0.5000000000  Biso 1.0 Os
Os8 1.0000000000 0.0000000000 0.5000000000 0.0000000000  Biso 1.0 Os
Sc9 1.0000000000 0.1988388475 0.1988388475 0.8011611525  Biso 1.0 Sc
Sc10 1.0000000000 0.8011611525 0.8011611525 0.1988388475  Biso 1.0 Sc
Sc11 1.0000000000 0.1988388475 0.8011611525 0.8011611525  Biso 1.0 Sc
Sc12 1.0000000000 0.8011611525 0.1988388475 0.1988388475  Biso 1.0 Sc
Sc13 1.0000000000 0.8011611525 0.1988388475 0.8011611525  Biso 1.0 Sc
Sc14 1.0000000000 0.1988388475 0.8011611525 0.1988388475  Biso 1.0 Sc
Sc15 1.0000000000 0.3832682219 0.3832682219 0.8501953343  Biso 1.0 Sc
Sc16 1.0000000000 0.8501953343 0.3832682219 0.3832682219  Biso 1.0 Sc
Sc17 1.0000000000 0.3832682219 0.8501953343 0.3832682219  Biso 1.0 Sc
Sc18 1.0000000000 0.3832682219 0.3832682219 0.3832682219  Biso 1.0 Sc
Sc19 1.0000000000 0.1498046657 0.6167317781 0.6167317781  Biso 1.0 Sc
Sc20 1.0000000000 0.6167317781 0.6167317781 0.1498046657  Biso 1.0 Sc
Sc21 1.0000000000 0.6167317781 0.1498046657 0.6167317781  Biso 1.0 Sc
Sc22 1.0000000000 0.6167317781 0.6167317781 0.6167317781  Biso 1.0 Sc
Sc23 1.0000000000 0.1571966688 0.1571966688 0.5284099935  Biso 1.0 Sc
Sc24 1.0000000000 0.5284099935 0.1571966688 0.1571966688  Biso 1.0 Sc
Sc25 1.0000000000 0.1571966688 0.5284099935 0.1571966688  Biso 1.0 Sc
Sc26 1.0000000000 0.1571966689 0.1571966688 0.1571966688  Biso 1.0 Sc
Sc27 1.0000000000 0.4715900065 0.8428033312 0.8428033312  Biso 1.0 Sc
Sc28 1.0000000000 0.8428033312 0.8428033312 0.4715900065  Biso 1.0 Sc
Sc29 1.0000000000 0.8428033312 0.4715900065 0.8428033311  Biso 1.0 Sc
Sc30 1.0000000000 0.8428033312 0.8428033312 0.8428033312  Biso 1.0 Sc
