# AFLOW.org Repositories
# P12Ru4Th1   [BCC,BCC,cI34] (STD_PRIM doi
data_P12Ru4Th1
_pd_phase_name P12Ru4Th1
_cell_length_a  7.0353142784
_cell_length_b  7.0353142784
_cell_length_c  7.0353142784
_cell_angle_alpha  109.4712206345
_cell_angle_beta  109.4712206345
_cell_angle_gamma  109.4712206345
_symmetry_space_group_name_H-M  'P1'
_symmetry_Int_Tables_Number  1
loop_
_symmetry_equiv_pos_site_id
_symmetry_equiv_pos_as_xyz
  1  x,y,z
loop_
 _atom_site_label
 _atom_site_occupancy
 _atom_site_fract_x
 _atom_site_fract_y
 _atom_site_fract_z
 _atom_site_thermal_displace_type
 _atom_site_B_iso_or_equiv
 _atom_site_type_symbol
P1 1.0000000000 0.1437536420 0.6431577859 0.7869114279  Biso 1.0 P
P2 1.0000000000 0.8562463580 0.6431577859 0.4994041439  Biso 1.0 P
P3 1.0000000000 0.1437536420 0.3568422141 0.5005958561  Biso 1.0 P
P4 1.0000000000 0.8562463580 0.3568422141 0.2130885721  Biso 1.0 P
P5 1.0000000000 0.3568422141 0.2130885721 0.8562463580  Biso 1.0 P
P6 1.0000000000 0.3568422141 0.5005958561 0.1437536420  Biso 1.0 P
P7 1.0000000000 0.6431577859 0.4994041439 0.8562463580  Biso 1.0 P
P8 1.0000000000 0.6431577859 0.7869114279 0.1437536420  Biso 1.0 P
P9 1.0000000000 0.5005958561 0.1437536420 0.3568422141  Biso 1.0 P
P10 1.0000000000 0.2130885721 0.8562463580 0.3568422141  Biso 1.0 P
P11 1.0000000000 0.7869114279 0.1437536420 0.6431577859  Biso 1.0 P
P12 1.0000000000 0.4994041439 0.8562463580 0.6431577859  Biso 1.0 P
Ru13 1.0000000000 0.5000000000 0.0000000000 0.0000000000  Biso 1.0 Ru
Ru14 1.0000000000 0.5000000000 0.5000000000 0.5000000000  Biso 1.0 Ru
Ru15 1.0000000000 0.0000000000 0.0000000000 0.5000000000  Biso 1.0 Ru
Ru16 1.0000000000 0.0000000000 0.5000000000 0.0000000000  Biso 1.0 Ru
Th17 1.0000000000 0.0000000000 0.0000000000 0.0000000000  Biso 1.0 Th
