# AFLOW.org Repositories
# P12Ru4Tb1   [BCC,BCC,cI34] (STD_PRIM doi
data_P12Ru4Tb1
_pd_phase_name P12Ru4Tb1
_cell_length_a  6.9942470866
_cell_length_b  6.9942470866
_cell_length_c  6.9942470866
_cell_angle_alpha  109.4712206345
_cell_angle_beta  109.4712206345
_cell_angle_gamma  109.4712206345
_symmetry_space_group_name_H-M  'P1'
_symmetry_Int_Tables_Number  1
loop_
_symmetry_equiv_pos_site_id
_symmetry_equiv_pos_as_xyz
  1  x,y,z
loop_
 _atom_site_label
 _atom_site_occupancy
 _atom_site_fract_x
 _atom_site_fract_y
 _atom_site_fract_z
 _atom_site_thermal_displace_type
 _atom_site_B_iso_or_equiv
 _atom_site_type_symbol
P1 1.0000000000 0.5001323235 0.6425235043 0.8576088192  Biso 1.0 P
P2 1.0000000000 0.2150853149 0.3574764957 0.8576088192  Biso 1.0 P
P3 1.0000000000 0.7849146851 0.6425235043 0.1423911808  Biso 1.0 P
P4 1.0000000000 0.4998676765 0.3574764957 0.1423911808  Biso 1.0 P
P5 1.0000000000 0.6425235043 0.8576088192 0.5001323235  Biso 1.0 P
P6 1.0000000000 0.3574764957 0.8576088192 0.2150853149  Biso 1.0 P
P7 1.0000000000 0.6425235043 0.1423911808 0.7849146851  Biso 1.0 P
P8 1.0000000000 0.3574764957 0.1423911808 0.4998676765  Biso 1.0 P
P9 1.0000000000 0.8576088192 0.5001323235 0.6425235043  Biso 1.0 P
P10 1.0000000000 0.8576088192 0.2150853149 0.3574764957  Biso 1.0 P
P11 1.0000000000 0.1423911808 0.7849146851 0.6425235043  Biso 1.0 P
P12 1.0000000000 0.1423911808 0.4998676765 0.3574764957  Biso 1.0 P
Ru13 1.0000000000 0.5000000000 0.5000000000 0.5000000000  Biso 1.0 Ru
Ru14 1.0000000000 0.0000000000 0.5000000000 0.0000000000  Biso 1.0 Ru
Ru15 1.0000000000 0.0000000000 0.0000000000 0.5000000000  Biso 1.0 Ru
Ru16 1.0000000000 0.5000000000 0.0000000000 0.0000000000  Biso 1.0 Ru
Tb17 1.0000000000 0.0000000000 0.0000000000 0.0000000000  Biso 1.0 Tb
