# AFLOW.org Repositories
# P1Pt1Sc1   [ORC,ORC,oP12] (STD_PRIM doi:
data_P1Pt1Sc1
_pd_phase_name P1Pt1Sc1
_cell_length_a  4.0294896665
_cell_length_b  7.0260634661
_cell_length_c  7.3939887149
_cell_angle_alpha  90.0000000000
_cell_angle_beta  90.0000000000
_cell_angle_gamma  90.0000000000
_symmetry_space_group_name_H-M  'P1'
_symmetry_Int_Tables_Number  1
loop_
_symmetry_equiv_pos_site_id
_symmetry_equiv_pos_as_xyz
  1  x,y,z
loop_
 _atom_site_label
 _atom_site_occupancy
 _atom_site_fract_x
 _atom_site_fract_y
 _atom_site_fract_z
 _atom_site_thermal_displace_type
 _atom_site_B_iso_or_equiv
 _atom_site_type_symbol
P1 1.0000000000 0.7500000000 0.9140697727 0.2499559637  Biso 1.0 P
P2 1.0000000000 0.2500000000 0.4140697727 0.2500440363  Biso 1.0 P
P3 1.0000000000 0.2500000000 0.0859302273 0.7500440363  Biso 1.0 P
P4 1.0000000000 0.7500000000 0.5859302273 0.7499559637  Biso 1.0 P
Pt5 1.0000000000 0.7500000000 0.5819836274 0.2512744848  Biso 1.0 Pt
Pt6 1.0000000000 0.2500000000 0.0819836274 0.2487255152  Biso 1.0 Pt
Pt7 1.0000000000 0.2500000000 0.4180163726 0.7487255152  Biso 1.0 Pt
Pt8 1.0000000000 0.7500000000 0.9180163726 0.7512744848  Biso 1.0 Pt
Sc9 1.0000000000 0.7500000000 0.2520771016 0.0000000000  Biso 1.0 Sc
Sc10 1.0000000000 0.2500000000 0.7520771016 0.5004187231  Biso 1.0 Sc
Sc11 1.0000000000 0.2500000000 0.7479228984 0.0000000000  Biso 1.0 Sc
Sc12 1.0000000000 0.7500000000 0.2479228984 0.4995812769  Biso 1.0 Sc
