# AFLOW.org Repositories
# P1Rh1Se1   [CUB,CUB,cP12] (STD_PRIM doi:
data_P1Rh1Se1
_pd_phase_name P1Rh1Se1
_cell_length_a  5.8602566817
_cell_length_b  5.8602566817
_cell_length_c  5.8602566817
_cell_angle_alpha  90.0000000000
_cell_angle_beta  90.0000000000
_cell_angle_gamma  90.0000000000
_symmetry_space_group_name_H-M  'P1'
_symmetry_Int_Tables_Number  1
loop_
_symmetry_equiv_pos_site_id
_symmetry_equiv_pos_as_xyz
  1  x,y,z
loop_
 _atom_site_label
 _atom_site_occupancy
 _atom_site_fract_x
 _atom_site_fract_y
 _atom_site_fract_z
 _atom_site_thermal_displace_type
 _atom_site_B_iso_or_equiv
 _atom_site_type_symbol
P1 1.0000000000 0.3865759455 0.3865759455 0.6134240545  Biso 1.0 P
P2 1.0000000000 0.1134240545 0.6134240545 0.1134240545  Biso 1.0 P
P3 1.0000000000 0.6134240545 0.8865759455 0.8865759455  Biso 1.0 P
P4 1.0000000000 0.8865759455 0.1134240545 0.3865759455  Biso 1.0 P
Rh5 1.0000000000 0.9865611730 0.9865611730 0.0134388270  Biso 1.0 Rh
Rh6 1.0000000000 0.5134388270 0.0134388270 0.5134388270  Biso 1.0 Rh
Rh7 1.0000000000 0.0134388270 0.4865611730 0.4865611730  Biso 1.0 Rh
Rh8 1.0000000000 0.4865611730 0.5134388270 0.9865611730  Biso 1.0 Rh
Se9 1.0000000000 0.6149673994 0.6149673994 0.3850326006  Biso 1.0 Se
Se10 1.0000000000 0.8850326006 0.3850326006 0.8850326006  Biso 1.0 Se
Se11 1.0000000000 0.3850326006 0.1149673994 0.1149673994  Biso 1.0 Se
Se12 1.0000000000 0.1149673994 0.8850326006 0.6149673994  Biso 1.0 Se
