# AFLOW.org Repositories
# P1Ru1   [ORC,ORC,oP8] (STD_PRIM doi:10.1
data_P1Ru1
_pd_phase_name P1Ru1
_cell_length_a  3.1810132909
_cell_length_b  5.5633835203
_cell_length_c  6.1641882154
_cell_angle_alpha  90.0000000000
_cell_angle_beta  90.0000000000
_cell_angle_gamma  90.0000000000
_symmetry_space_group_name_H-M  'P1'
_symmetry_Int_Tables_Number  1
loop_
_symmetry_equiv_pos_site_id
_symmetry_equiv_pos_as_xyz
  1  x,y,z
loop_
 _atom_site_label
 _atom_site_occupancy
 _atom_site_fract_x
 _atom_site_fract_y
 _atom_site_fract_z
 _atom_site_thermal_displace_type
 _atom_site_B_iso_or_equiv
 _atom_site_type_symbol
P1 1.0000000000 0.2500000000 0.1887243433 0.4353182112  Biso 1.0 P
P2 1.0000000000 0.7500000000 0.3112756567 0.9353182112  Biso 1.0 P
P3 1.0000000000 0.7500000000 0.8112756567 0.5646817888  Biso 1.0 P
P4 1.0000000000 0.2500000000 0.6887243433 0.0646817888  Biso 1.0 P
Ru5 1.0000000000 0.2500000000 0.9880198655 0.7929727602  Biso 1.0 Ru
Ru6 1.0000000000 0.7500000000 0.5119801345 0.2929727602  Biso 1.0 Ru
Ru7 1.0000000000 0.7500000000 0.0119801345 0.2070272398  Biso 1.0 Ru
Ru8 1.0000000000 0.2500000000 0.4880198655 0.7070272398  Biso 1.0 Ru
