# AFLOW.org Repositories
# P1Sb1Ti2   [HEX,HEX,hP8] (STD_PRIM doi:1
data_P1Sb1Ti2
_pd_phase_name P1Sb1Ti2
_cell_length_a  3.6990655385
_cell_length_b  3.6990655385
_cell_length_c  12.7548807992
_cell_angle_alpha  90.0000000000
_cell_angle_beta  90.0000000000
_cell_angle_gamma  120.0000000000
_symmetry_space_group_name_H-M  'P1'
_symmetry_Int_Tables_Number  1
loop_
_symmetry_equiv_pos_site_id
_symmetry_equiv_pos_as_xyz
  1  x,y,z
loop_
 _atom_site_label
 _atom_site_occupancy
 _atom_site_fract_x
 _atom_site_fract_y
 _atom_site_fract_z
 _atom_site_thermal_displace_type
 _atom_site_B_iso_or_equiv
 _atom_site_type_symbol
P1 1.0000000000 0.0000000000 0.0000000000 0.0000000000  Biso 1.0 P
P2 1.0000000000 0.0000000000 0.0000000000 0.5000000000  Biso 1.0 P
Sb3 1.0000000000 0.3333240849 0.6666759151 0.7500000000  Biso 1.0 Sb
Sb4 1.0000000000 0.6666759151 0.3333240849 0.2500000000  Biso 1.0 Sb
Ti5 1.0000000000 0.3333249991 0.6666750009 0.1007054232  Biso 1.0 Ti
Ti6 1.0000000000 0.6666750009 0.3333249991 0.6007054232  Biso 1.0 Ti
Ti7 1.0000000000 0.6666750009 0.3333249991 0.8992945768  Biso 1.0 Ti
Ti8 1.0000000000 0.3333249991 0.6666750009 0.3992945768  Biso 1.0 Ti
