# AFLOW.org Repositories
# P1Zr1   [HEX,HEX,hP8] (STD_PRIM doi:10.1
data_P1Zr1
_pd_phase_name P1Zr1
_cell_length_a  3.7109765313
_cell_length_b  3.7109765313
_cell_length_c  12.6181176660
_cell_angle_alpha  90.0000000000
_cell_angle_beta  90.0000000000
_cell_angle_gamma  120.0000000000
_symmetry_space_group_name_H-M  'P1'
_symmetry_Int_Tables_Number  1
loop_
_symmetry_equiv_pos_site_id
_symmetry_equiv_pos_as_xyz
  1  x,y,z
loop_
 _atom_site_label
 _atom_site_occupancy
 _atom_site_fract_x
 _atom_site_fract_y
 _atom_site_fract_z
 _atom_site_thermal_displace_type
 _atom_site_B_iso_or_equiv
 _atom_site_type_symbol
P1 1.0000000000 0.0000000000 0.0000000000 0.0000000000  Biso 1.0 P
P2 1.0000000000 0.0000000000 0.0000000000 0.5000000000  Biso 1.0 P
P3 1.0000000000 0.6666653654 0.3333307307 0.7500000000  Biso 1.0 P
P4 1.0000000000 0.3333346346 0.6666692693 0.2500000000  Biso 1.0 P
Zr5 1.0000000000 0.6666686647 0.3333373295 0.1159077312  Biso 1.0 Zr
Zr6 1.0000000000 0.3333313353 0.6666626705 0.6159077312  Biso 1.0 Zr
Zr7 1.0000000000 0.3333313353 0.6666626705 0.8840922688  Biso 1.0 Zr
Zr8 1.0000000000 0.6666686647 0.3333373295 0.3840922688  Biso 1.0 Zr
