# AFLOW.org Repositories
# P2Rh1   [MCL,MCL,mP12] (STD_PRIM doi:10.
data_P2Rh1
_pd_phase_name P2Rh1
_cell_length_a  5.8343552610
_cell_length_b  5.7762115210
_cell_length_c  5.8771407647
_cell_angle_alpha  67.1947400632
_cell_angle_beta  90.0000000000
_cell_angle_gamma  90.0000000000
_symmetry_space_group_name_H-M  'P1'
_symmetry_Int_Tables_Number  1
loop_
_symmetry_equiv_pos_site_id
_symmetry_equiv_pos_as_xyz
  1  x,y,z
loop_
 _atom_site_label
 _atom_site_occupancy
 _atom_site_fract_x
 _atom_site_fract_y
 _atom_site_fract_z
 _atom_site_thermal_displace_type
 _atom_site_B_iso_or_equiv
 _atom_site_type_symbol
P1 1.0000000000 0.3778862672 0.6657351082 0.1882027937  Biso 1.0 P
P2 1.0000000000 0.8778862672 0.3342648918 0.3117972063  Biso 1.0 P
P3 1.0000000000 0.6221137328 0.3342648918 0.8117972063  Biso 1.0 P
P4 1.0000000000 0.1221137328 0.6657351082 0.6882027937  Biso 1.0 P
P5 1.0000000000 0.6207139648 0.8384482989 0.3666485795  Biso 1.0 P
P6 1.0000000000 0.1207139648 0.1615517011 0.1333514205  Biso 1.0 P
P7 1.0000000000 0.3792860352 0.1615517011 0.6333514205  Biso 1.0 P
P8 1.0000000000 0.8792860352 0.8384482989 0.8666485795  Biso 1.0 P
Rh9 1.0000000000 0.0015776492 0.7290497517 0.2890367437  Biso 1.0 Rh
Rh10 1.0000000000 0.5015776492 0.2709502483 0.2109632563  Biso 1.0 Rh
Rh11 1.0000000000 0.9984223508 0.2709502483 0.7109632563  Biso 1.0 Rh
Rh12 1.0000000000 0.4984223508 0.7290497517 0.7890367437  Biso 1.0 Rh
