# AFLOW.org Repositories
# P2Ru2Sr1   [BCT,BCT2,tI10] (STD_PRIM doi
data_P2Ru2Sr1
_pd_phase_name P2Ru2Sr1
_cell_length_a  6.2631135682
_cell_length_b  6.2631135682
_cell_length_c  6.2631135682
_cell_angle_alpha  142.0844481634
_cell_angle_beta  142.0844481634
_cell_angle_gamma  54.7016135875
_symmetry_space_group_name_H-M  'P1'
_symmetry_Int_Tables_Number  1
loop_
_symmetry_equiv_pos_site_id
_symmetry_equiv_pos_as_xyz
  1  x,y,z
loop_
 _atom_site_label
 _atom_site_occupancy
 _atom_site_fract_x
 _atom_site_fract_y
 _atom_site_fract_z
 _atom_site_thermal_displace_type
 _atom_site_B_iso_or_equiv
 _atom_site_type_symbol
P1 1.0000000000 0.3503886084 0.3503886084 0.0000000000  Biso 1.0 P
P2 1.0000000000 0.6496113916 0.6496113916 0.0000000000  Biso 1.0 P
Ru3 1.0000000000 0.7500000000 0.2500000000 0.5000000000  Biso 1.0 Ru
Ru4 1.0000000000 0.2500000000 0.7500000000 0.5000000000  Biso 1.0 Ru
Sr5 1.0000000000 0.0000000000 0.0000000000 0.0000000000  Biso 1.0 Sr
