# AFLOW.org Repositories
# P2S6Th1   [TET,TET,tP18] (STD_PRIM doi:1
data_P2S6Th1
_pd_phase_name P2S6Th1
_cell_length_a  7.2020333469
_cell_length_b  7.2020333469
_cell_length_c  10.0507171717
_cell_angle_alpha  90.0000000000
_cell_angle_beta  90.0000000000
_cell_angle_gamma  90.0000000000
_symmetry_space_group_name_H-M  'P1'
_symmetry_Int_Tables_Number  1
loop_
_symmetry_equiv_pos_site_id
_symmetry_equiv_pos_as_xyz
  1  x,y,z
loop_
 _atom_site_label
 _atom_site_occupancy
 _atom_site_fract_x
 _atom_site_fract_y
 _atom_site_fract_z
 _atom_site_thermal_displace_type
 _atom_site_B_iso_or_equiv
 _atom_site_type_symbol
P1 1.0000000000 0.6474070334 0.0595602303 0.0000000000  Biso 1.0 P
P2 1.0000000000 0.3525929666 0.9404397697 0.0000000000  Biso 1.0 P
P3 1.0000000000 0.9404397697 0.6474070334 0.5000000000  Biso 1.0 P
P4 1.0000000000 0.0595602303 0.3525929666 0.5000000000  Biso 1.0 P
S5 1.0000000000 0.1810706713 0.1702412037 0.0000000000  Biso 1.0 S
S6 1.0000000000 0.8189293287 0.8297587963 0.0000000000  Biso 1.0 S
S7 1.0000000000 0.8297587963 0.1810706713 0.5000000000  Biso 1.0 S
S8 1.0000000000 0.1702412037 0.8189293287 0.5000000000  Biso 1.0 S
S9 1.0000000000 0.2083019508 0.3251768077 0.3306124500  Biso 1.0 S
S10 1.0000000000 0.7916980492 0.6748231923 0.3306124500  Biso 1.0 S
S11 1.0000000000 0.6748231923 0.2083019508 0.8306124500  Biso 1.0 S
S12 1.0000000000 0.3251768077 0.7916980492 0.8306124500  Biso 1.0 S
S13 1.0000000000 0.7916980492 0.6748231923 0.6693875500  Biso 1.0 S
S14 1.0000000000 0.2083019508 0.3251768077 0.6693875500  Biso 1.0 S
S15 1.0000000000 0.3251768077 0.7916980492 0.1693875500  Biso 1.0 S
S16 1.0000000000 0.6748231923 0.2083019508 0.1693875500  Biso 1.0 S
Th17 1.0000000000 0.0000000000 0.0000000000 0.2500000000  Biso 1.0 Th
Th18 1.0000000000 0.0000000000 0.0000000000 0.7500000000  Biso 1.0 Th
