# AFLOW.org Repositories
# P3Rh1   [BCC,BCC,cI32] (STD_PRIM doi:10.
data_P3Rh1
_pd_phase_name P3Rh1
_cell_length_a  6.9775230118
_cell_length_b  6.9775230118
_cell_length_c  6.9775230118
_cell_angle_alpha  109.4712206345
_cell_angle_beta  109.4712206345
_cell_angle_gamma  109.4712206345
_symmetry_space_group_name_H-M  'P1'
_symmetry_Int_Tables_Number  1
loop_
_symmetry_equiv_pos_site_id
_symmetry_equiv_pos_as_xyz
  1  x,y,z
loop_
 _atom_site_label
 _atom_site_occupancy
 _atom_site_fract_x
 _atom_site_fract_y
 _atom_site_fract_z
 _atom_site_thermal_displace_type
 _atom_site_B_iso_or_equiv
 _atom_site_type_symbol
P1 1.0000000000 0.6436701919 0.8606499054 0.5043200973  Biso 1.0 P
P2 1.0000000000 0.3563298081 0.8606499054 0.2169797134  Biso 1.0 P
P3 1.0000000000 0.6436701919 0.1393500946 0.7830202866  Biso 1.0 P
P4 1.0000000000 0.3563298081 0.1393500946 0.4956799027  Biso 1.0 P
P5 1.0000000000 0.8606499054 0.5043200973 0.6436701919  Biso 1.0 P
P6 1.0000000000 0.8606499054 0.2169797134 0.3563298081  Biso 1.0 P
P7 1.0000000000 0.1393500946 0.7830202866 0.6436701919  Biso 1.0 P
P8 1.0000000000 0.1393500946 0.4956799027 0.3563298081  Biso 1.0 P
P9 1.0000000000 0.5043200973 0.6436701919 0.8606499054  Biso 1.0 P
P10 1.0000000000 0.2169797134 0.3563298081 0.8606499054  Biso 1.0 P
P11 1.0000000000 0.7830202866 0.6436701919 0.1393500946  Biso 1.0 P
P12 1.0000000000 0.4956799027 0.3563298081 0.1393500946  Biso 1.0 P
Rh13 1.0000000000 0.5000000000 0.5000000000 0.5000000000  Biso 1.0 Rh
Rh14 1.0000000000 0.5000000000 0.0000000000 0.0000000000  Biso 1.0 Rh
Rh15 1.0000000000 0.0000000000 0.5000000000 0.0000000000  Biso 1.0 Rh
Rh16 1.0000000000 0.0000000000 0.0000000000 0.5000000000  Biso 1.0 Rh
