# AFLOW.org Repositories
# P4Pa3   [BCC,BCC,cI28] (STD_PRIM doi:10.
data_P4Pa3
_pd_phase_name P4Pa3
_cell_length_a  7.1709800862
_cell_length_b  7.1709800862
_cell_length_c  7.1709800862
_cell_angle_alpha  109.4712206345
_cell_angle_beta  109.4712206345
_cell_angle_gamma  109.4712206345
_symmetry_space_group_name_H-M  'P1'
_symmetry_Int_Tables_Number  1
loop_
_symmetry_equiv_pos_site_id
_symmetry_equiv_pos_as_xyz
  1  x,y,z
loop_
 _atom_site_label
 _atom_site_occupancy
 _atom_site_fract_x
 _atom_site_fract_y
 _atom_site_fract_z
 _atom_site_thermal_displace_type
 _atom_site_B_iso_or_equiv
 _atom_site_type_symbol
P1 1.0000000000 0.0000000000 0.0000000000 0.8408220467  Biso 1.0 P
P2 1.0000000000 0.6591779533 0.1591779533 0.6591779533  Biso 1.0 P
P3 1.0000000000 0.8408220467 0.5000000000 0.5000000000  Biso 1.0 P
P4 1.0000000000 0.5000000000 0.3408220467 0.0000000000  Biso 1.0 P
P5 1.0000000000 0.0000000000 0.0000000000 0.3408220467  Biso 1.0 P
P6 1.0000000000 0.1591779533 0.6591779533 0.1591779533  Biso 1.0 P
P7 1.0000000000 0.5000000000 0.8408220467 0.0000000000  Biso 1.0 P
P8 1.0000000000 0.3408220467 0.5000000000 0.5000000000  Biso 1.0 P
Pa9 1.0000000000 0.2500000000 0.8750000000 0.6250000000  Biso 1.0 Pa
Pa10 1.0000000000 0.7500000000 0.6250000000 0.8750000000  Biso 1.0 Pa
Pa11 1.0000000000 0.6250000000 0.7500000000 0.3750000000  Biso 1.0 Pa
Pa12 1.0000000000 0.8750000000 0.2500000000 0.1250000000  Biso 1.0 Pa
Pa13 1.0000000000 0.1250000000 0.3750000000 0.7500000000  Biso 1.0 Pa
Pa14 1.0000000000 0.3750000000 0.1250000000 0.2500000000  Biso 1.0 Pa
