# AFLOW.org Repositories
# Pa1Sb2   [TET,TET,tP6] (STD_PRIM doi:10.
data_Pa1Sb2
_pd_phase_name Pa1Sb2
_cell_length_a  4.3399572489
_cell_length_b  4.3399572489
_cell_length_c  8.7392625915
_cell_angle_alpha  90.0000000000
_cell_angle_beta  90.0000000000
_cell_angle_gamma  90.0000000000
_symmetry_space_group_name_H-M  'P1'
_symmetry_Int_Tables_Number  1
loop_
_symmetry_equiv_pos_site_id
_symmetry_equiv_pos_as_xyz
  1  x,y,z
loop_
 _atom_site_label
 _atom_site_occupancy
 _atom_site_fract_x
 _atom_site_fract_y
 _atom_site_fract_z
 _atom_site_thermal_displace_type
 _atom_site_B_iso_or_equiv
 _atom_site_type_symbol
Pa1 1.0000000000 0.2500000000 0.2500000000 0.2776125286  Biso 1.0 Pa
Pa2 1.0000000000 0.7500000000 0.7500000000 0.7223874714  Biso 1.0 Pa
Sb3 1.0000000000 0.7500000000 0.2500000000 0.0000000000  Biso 1.0 Sb
Sb4 1.0000000000 0.2500000000 0.7500000000 0.0000000000  Biso 1.0 Sb
Sb5 1.0000000000 0.2500000000 0.2500000000 0.6400776013  Biso 1.0 Sb
Sb6 1.0000000000 0.7500000000 0.7500000000 0.3599223987  Biso 1.0 Sb
