# AFLOW.org Repositories
# Pb13Rh4Sr3   [CUB,CUB,cP40] (STD_PRIM do
data_Pb13Rh4Sr3
_pd_phase_name Pb13Rh4Sr3
_cell_length_a  10.2667709628
_cell_length_b  10.2667709628
_cell_length_c  10.2667709628
_cell_angle_alpha  90.0000000000
_cell_angle_beta  90.0000000000
_cell_angle_gamma  90.0000000000
_symmetry_space_group_name_H-M  'P1'
_symmetry_Int_Tables_Number  1
loop_
_symmetry_equiv_pos_site_id
_symmetry_equiv_pos_as_xyz
  1  x,y,z
loop_
 _atom_site_label
 _atom_site_occupancy
 _atom_site_fract_x
 _atom_site_fract_y
 _atom_site_fract_z
 _atom_site_thermal_displace_type
 _atom_site_B_iso_or_equiv
 _atom_site_type_symbol
Pb1 1.0000000000 0.0000000000 0.0000000000 0.0000000000  Biso 1.0 Pb
Pb2 1.0000000000 0.5000000000 0.5000000000 0.5000000000  Biso 1.0 Pb
Pb3 1.0000000000 0.0000000000 0.6981820546 0.1562553013  Biso 1.0 Pb
Pb4 1.0000000000 0.0000000000 0.3018179454 0.1562553013  Biso 1.0 Pb
Pb5 1.0000000000 0.0000000000 0.6981820546 0.8437446987  Biso 1.0 Pb
Pb6 1.0000000000 0.0000000000 0.3018179454 0.8437446987  Biso 1.0 Pb
Pb7 1.0000000000 0.8437446987 0.0000000000 0.3018179454  Biso 1.0 Pb
Pb8 1.0000000000 0.8437446987 0.0000000000 0.6981820546  Biso 1.0 Pb
Pb9 1.0000000000 0.1562553013 0.0000000000 0.3018179454  Biso 1.0 Pb
Pb10 1.0000000000 0.1562553013 0.0000000000 0.6981820546  Biso 1.0 Pb
Pb11 1.0000000000 0.6981820546 0.8437446987 0.0000000000  Biso 1.0 Pb
Pb12 1.0000000000 0.3018179454 0.8437446987 0.0000000000  Biso 1.0 Pb
Pb13 1.0000000000 0.6981820546 0.1562553013 0.0000000000  Biso 1.0 Pb
Pb14 1.0000000000 0.3018179454 0.1562553013 0.0000000000  Biso 1.0 Pb
Pb15 1.0000000000 0.1981820546 0.5000000000 0.3437446987  Biso 1.0 Pb
Pb16 1.0000000000 0.8018179454 0.5000000000 0.3437446987  Biso 1.0 Pb
Pb17 1.0000000000 0.1981820546 0.5000000000 0.6562553013  Biso 1.0 Pb
Pb18 1.0000000000 0.8018179454 0.5000000000 0.6562553013  Biso 1.0 Pb
Pb19 1.0000000000 0.5000000000 0.3437446987 0.1981820546  Biso 1.0 Pb
Pb20 1.0000000000 0.5000000000 0.3437446987 0.8018179454  Biso 1.0 Pb
Pb21 1.0000000000 0.5000000000 0.6562553013 0.1981820546  Biso 1.0 Pb
Pb22 1.0000000000 0.5000000000 0.6562553013 0.8018179454  Biso 1.0 Pb
Pb23 1.0000000000 0.3437446987 0.1981820546 0.5000000000  Biso 1.0 Pb
Pb24 1.0000000000 0.3437446987 0.8018179454 0.5000000000  Biso 1.0 Pb
Pb25 1.0000000000 0.6562553013 0.1981820546 0.5000000000  Biso 1.0 Pb
Pb26 1.0000000000 0.6562553013 0.8018179454 0.5000000000  Biso 1.0 Pb
Rh27 1.0000000000 0.7500000000 0.7500000000 0.2500000000  Biso 1.0 Rh
Rh28 1.0000000000 0.2500000000 0.2500000000 0.2500000000  Biso 1.0 Rh
Rh29 1.0000000000 0.2500000000 0.7500000000 0.7500000000  Biso 1.0 Rh
Rh30 1.0000000000 0.7500000000 0.2500000000 0.7500000000  Biso 1.0 Rh
Rh31 1.0000000000 0.2500000000 0.2500000000 0.7500000000  Biso 1.0 Rh
Rh32 1.0000000000 0.7500000000 0.7500000000 0.7500000000  Biso 1.0 Rh
Rh33 1.0000000000 0.7500000000 0.2500000000 0.2500000000  Biso 1.0 Rh
Rh34 1.0000000000 0.2500000000 0.7500000000 0.2500000000  Biso 1.0 Rh
Sr35 1.0000000000 0.7500000000 0.5000000000 0.0000000000  Biso 1.0 Sr
Sr36 1.0000000000 0.2500000000 0.5000000000 0.0000000000  Biso 1.0 Sr
Sr37 1.0000000000 0.0000000000 0.7500000000 0.5000000000  Biso 1.0 Sr
Sr38 1.0000000000 0.0000000000 0.2500000000 0.5000000000  Biso 1.0 Sr
Sr39 1.0000000000 0.5000000000 0.0000000000 0.2500000000  Biso 1.0 Sr
Sr40 1.0000000000 0.5000000000 0.0000000000 0.7500000000  Biso 1.0 Sr
