# AFLOW.org Repositories
# Pb1Sr1Zn1   [HEX,HEX,hP6] (STD_PRIM doi:
data_Pb1Sr1Zn1
_pd_phase_name Pb1Sr1Zn1
_cell_length_a  4.7682823116
_cell_length_b  4.7682823116
_cell_length_c  9.1219547801
_cell_angle_alpha  90.0000000000
_cell_angle_beta  90.0000000000
_cell_angle_gamma  120.0000000000
_symmetry_space_group_name_H-M  'P1'
_symmetry_Int_Tables_Number  1
loop_
_symmetry_equiv_pos_site_id
_symmetry_equiv_pos_as_xyz
  1  x,y,z
loop_
 _atom_site_label
 _atom_site_occupancy
 _atom_site_fract_x
 _atom_site_fract_y
 _atom_site_fract_z
 _atom_site_thermal_displace_type
 _atom_site_B_iso_or_equiv
 _atom_site_type_symbol
Pb1 1.0000000000 0.3333465434 0.6666732717 0.2500000000  Biso 1.0 Pb
Pb2 1.0000000000 0.6666534566 0.3333267283 0.7500000000  Biso 1.0 Pb
Sr3 1.0000000000 0.0000000000 0.0000000000 0.0000000000  Biso 1.0 Sr
Sr4 1.0000000000 0.0000000000 0.0000000000 0.5000000000  Biso 1.0 Sr
Zn5 1.0000000000 0.3333254974 0.6666627487 0.7500000000  Biso 1.0 Zn
Zn6 1.0000000000 0.6666745026 0.3333372513 0.2500000000  Biso 1.0 Zn
