# AFLOW.org Repositories
# Pb1Te3Tl4   [BCT,BCT2,tI32] (STD_PRIM do
data_Pb1Te3Tl4
_pd_phase_name Pb1Te3Tl4
_cell_length_a  9.2134567272
_cell_length_b  9.2134567272
_cell_length_c  9.2134567272
_cell_angle_alpha  121.7980982245
_cell_angle_beta  121.7980982245
_cell_angle_gamma  86.9128324583
_symmetry_space_group_name_H-M  'P1'
_symmetry_Int_Tables_Number  1
loop_
_symmetry_equiv_pos_site_id
_symmetry_equiv_pos_as_xyz
  1  x,y,z
loop_
 _atom_site_label
 _atom_site_occupancy
 _atom_site_fract_x
 _atom_site_fract_y
 _atom_site_fract_z
 _atom_site_thermal_displace_type
 _atom_site_B_iso_or_equiv
 _atom_site_type_symbol
Pb1 1.0000000000 0.0000000000 0.0000000000 0.0000000000  Biso 1.0 Pb
Pb2 1.0000000000 0.5000000000 0.5000000000 0.0000000000  Biso 1.0 Pb
Te3 1.0000000000 0.6638467064 0.1638467064 0.8276934127  Biso 1.0 Te
Te4 1.0000000000 0.3361532936 0.8361532936 0.1723065873  Biso 1.0 Te
Te5 1.0000000000 0.8361532936 0.6638467064 0.5000000000  Biso 1.0 Te
Te6 1.0000000000 0.1638467064 0.3361532936 0.5000000000  Biso 1.0 Te
Te7 1.0000000000 0.7500000000 0.7500000000 0.0000000000  Biso 1.0 Te
Te8 1.0000000000 0.2500000000 0.2500000000 0.0000000000  Biso 1.0 Te
Tl9 1.0000000000 0.6950312764 0.1950312764 0.2077087356  Biso 1.0 Tl
Tl10 1.0000000000 0.9873225408 0.4873225408 0.7922912644  Biso 1.0 Tl
Tl11 1.0000000000 0.4873225408 0.6950312764 0.5000000000  Biso 1.0 Tl
Tl12 1.0000000000 0.1950312764 0.9873225408 0.5000000000  Biso 1.0 Tl
Tl13 1.0000000000 0.8049687236 0.0126774592 0.5000000000  Biso 1.0 Tl
Tl14 1.0000000000 0.5126774592 0.3049687236 0.5000000000  Biso 1.0 Tl
Tl15 1.0000000000 0.0126774592 0.5126774592 0.2077087356  Biso 1.0 Tl
Tl16 1.0000000000 0.3049687236 0.8049687236 0.7922912644  Biso 1.0 Tl
