# AFLOW.org Repositories
# Pb3Tb5   [HEX,HEX,hP16] (STD_PRIM doi:10
data_Pb3Tb5
_pd_phase_name Pb3Tb5
_cell_length_a  9.1085093877
_cell_length_b  9.1085093877
_cell_length_c  6.6597738788
_cell_angle_alpha  90.0000000000
_cell_angle_beta  90.0000000000
_cell_angle_gamma  120.0000000000
_symmetry_space_group_name_H-M  'P1'
_symmetry_Int_Tables_Number  1
loop_
_symmetry_equiv_pos_site_id
_symmetry_equiv_pos_as_xyz
  1  x,y,z
loop_
 _atom_site_label
 _atom_site_occupancy
 _atom_site_fract_x
 _atom_site_fract_y
 _atom_site_fract_z
 _atom_site_thermal_displace_type
 _atom_site_B_iso_or_equiv
 _atom_site_type_symbol
Pb1 1.0000000000 0.0000000000 0.3945249657 0.2500000000  Biso 1.0 Pb
Pb2 1.0000000000 0.6054750343 0.6054750343 0.2500000000  Biso 1.0 Pb
Pb3 1.0000000000 0.3945354272 0.0000000000 0.2500000000  Biso 1.0 Pb
Pb4 1.0000000000 0.0000000000 0.6054750343 0.7500000000  Biso 1.0 Pb
Pb5 1.0000000000 0.3945249657 0.3945249657 0.7500000000  Biso 1.0 Pb
Pb6 1.0000000000 0.6054645728 0.0000000000 0.7500000000  Biso 1.0 Pb
Tb7 1.0000000000 0.6666712135 0.3333424269 0.0000000000  Biso 1.0 Tb
Tb8 1.0000000000 0.3333287865 0.6666575731 0.5000000000  Biso 1.0 Tb
Tb9 1.0000000000 0.3333287865 0.6666575731 0.0000000000  Biso 1.0 Tb
Tb10 1.0000000000 0.6666712135 0.3333424269 0.5000000000  Biso 1.0 Tb
Tb11 1.0000000000 0.0000000000 0.7629936217 0.2500000000  Biso 1.0 Tb
Tb12 1.0000000000 0.2370063783 0.2370063783 0.2500000000  Biso 1.0 Tb
Tb13 1.0000000000 0.7629854023 0.0000000000 0.2500000000  Biso 1.0 Tb
Tb14 1.0000000000 0.0000000000 0.2370063783 0.7500000000  Biso 1.0 Tb
Tb15 1.0000000000 0.7629936217 0.7629936217 0.7500000000  Biso 1.0 Tb
Tb16 1.0000000000 0.2370145977 0.0000000000 0.7500000000  Biso 1.0 Tb
