# AFLOW.org Repositories
# Pd1Sn1Y1   [ORC,ORC,oP12] (STD_PRIM doi:
data_Pd1Sn1Y1
_pd_phase_name Pd1Sn1Y1
_cell_length_a  4.6684879825
_cell_length_b  7.2551551286
_cell_length_c  8.0227808066
_cell_angle_alpha  90.0000000000
_cell_angle_beta  90.0000000000
_cell_angle_gamma  90.0000000000
_symmetry_space_group_name_H-M  'P1'
_symmetry_Int_Tables_Number  1
loop_
_symmetry_equiv_pos_site_id
_symmetry_equiv_pos_as_xyz
  1  x,y,z
loop_
 _atom_site_label
 _atom_site_occupancy
 _atom_site_fract_x
 _atom_site_fract_y
 _atom_site_fract_z
 _atom_site_thermal_displace_type
 _atom_site_B_iso_or_equiv
 _atom_site_type_symbol
Pd1 1.0000000000 0.2500000000 0.2038963305 0.9163226292  Biso 1.0 Pd
Pd2 1.0000000000 0.7500000000 0.2961036695 0.4163226292  Biso 1.0 Pd
Pd3 1.0000000000 0.7500000000 0.7961036695 0.0836773708  Biso 1.0 Pd
Pd4 1.0000000000 0.2500000000 0.7038963305 0.5836773708  Biso 1.0 Pd
Sn5 1.0000000000 0.2500000000 0.3042040605 0.5879298487  Biso 1.0 Sn
Sn6 1.0000000000 0.7500000000 0.1957959395 0.0879298487  Biso 1.0 Sn
Sn7 1.0000000000 0.7500000000 0.6957959395 0.4120701513  Biso 1.0 Sn
Sn8 1.0000000000 0.2500000000 0.8042040605 0.9120701513  Biso 1.0 Sn
Y9 1.0000000000 0.2500000000 0.9924025225 0.2939564206  Biso 1.0 Y
Y10 1.0000000000 0.7500000000 0.5075974775 0.7939564206  Biso 1.0 Y
Y11 1.0000000000 0.7500000000 0.0075974775 0.7060435794  Biso 1.0 Y
Y12 1.0000000000 0.2500000000 0.4924025225 0.2060435794  Biso 1.0 Y
