# AFLOW.org Repositories
# Pd1Sn3Sr1   [BCT,BCT2,tI10] (STD_PRIM do
data_Pd1Sn3Sr1
_pd_phase_name Pd1Sn3Sr1
_cell_length_a  6.7297722980
_cell_length_b  6.7297722980
_cell_length_c  6.7297722980
_cell_angle_alpha  137.2495226644
_cell_angle_beta  137.2495226644
_cell_angle_gamma  62.0543559044
_symmetry_space_group_name_H-M  'P1'
_symmetry_Int_Tables_Number  1
loop_
_symmetry_equiv_pos_site_id
_symmetry_equiv_pos_as_xyz
  1  x,y,z
loop_
 _atom_site_label
 _atom_site_occupancy
 _atom_site_fract_x
 _atom_site_fract_y
 _atom_site_fract_z
 _atom_site_thermal_displace_type
 _atom_site_B_iso_or_equiv
 _atom_site_type_symbol
Pd1 1.0000000000 0.3587147803 0.3587147803 0.0000000000  Biso 1.0 Pd
Sn2 1.0000000000 0.5881223465 0.5881223465 0.0000000000  Biso 1.0 Sn
Sn3 1.0000000000 0.2553424451 0.7553424451 0.5000000000  Biso 1.0 Sn
Sn4 1.0000000000 0.7553424451 0.2553424451 0.5000000000  Biso 1.0 Sn
Sr5 1.0000000000 0.0014779830 0.0014779830 0.0000000000  Biso 1.0 Sr
