# AFLOW.org Repositories
# Pd1Si1Zr1   [ORC,ORC,oP12] (STD_PRIM doi
data_Pd1Si1Zr1
_pd_phase_name Pd1Si1Zr1
_cell_length_a  3.9045736312
_cell_length_b  6.6587077279
_cell_length_c  7.6629815480
_cell_angle_alpha  90.0000000000
_cell_angle_beta  90.0000000000
_cell_angle_gamma  90.0000000000
_symmetry_space_group_name_H-M  'P1'
_symmetry_Int_Tables_Number  1
loop_
_symmetry_equiv_pos_site_id
_symmetry_equiv_pos_as_xyz
  1  x,y,z
loop_
 _atom_site_label
 _atom_site_occupancy
 _atom_site_fract_x
 _atom_site_fract_y
 _atom_site_fract_z
 _atom_site_thermal_displace_type
 _atom_site_B_iso_or_equiv
 _atom_site_type_symbol
Pd1 1.0000000000 0.2500000000 0.1435443673 0.9387155326  Biso 1.0 Pd
Pd2 1.0000000000 0.7500000000 0.3564556327 0.4387155326  Biso 1.0 Pd
Pd3 1.0000000000 0.7500000000 0.8564556327 0.0612844674  Biso 1.0 Pd
Pd4 1.0000000000 0.2500000000 0.6435443673 0.5612844674  Biso 1.0 Pd
Si5 1.0000000000 0.2500000000 0.2606773874 0.6229361823  Biso 1.0 Si
Si6 1.0000000000 0.7500000000 0.2393226126 0.1229361823  Biso 1.0 Si
Si7 1.0000000000 0.7500000000 0.7393226126 0.3770638177  Biso 1.0 Si
Si8 1.0000000000 0.2500000000 0.7606773874 0.8770638177  Biso 1.0 Si
Zr9 1.0000000000 0.2500000000 0.0270079718 0.3191302196  Biso 1.0 Zr
Zr10 1.0000000000 0.7500000000 0.4729920282 0.8191302196  Biso 1.0 Zr
Zr11 1.0000000000 0.7500000000 0.9729920282 0.6808697804  Biso 1.0 Zr
Zr12 1.0000000000 0.2500000000 0.5270079718 0.1808697804  Biso 1.0 Zr
