# AFLOW.org Repositories
# Pd1Sr1Tl2   [ORCC,ORCC,oS16] (STD_PRIM d
data_Pd1Sr1Tl2
_pd_phase_name Pd1Sr1Tl2
_cell_length_a  6.0115478680
_cell_length_b  6.0115478680
_cell_length_c  8.4663647017
_cell_angle_alpha  90.0000000000
_cell_angle_beta  90.0000000000
_cell_angle_gamma  136.0239349661
_symmetry_space_group_name_H-M  'P1'
_symmetry_Int_Tables_Number  1
loop_
_symmetry_equiv_pos_site_id
_symmetry_equiv_pos_as_xyz
  1  x,y,z
loop_
 _atom_site_label
 _atom_site_occupancy
 _atom_site_fract_x
 _atom_site_fract_y
 _atom_site_fract_z
 _atom_site_thermal_displace_type
 _atom_site_B_iso_or_equiv
 _atom_site_type_symbol
Pd1 1.0000000000 0.7192773894 0.2807226106 0.2500000000  Biso 1.0 Pd
Pd2 1.0000000000 0.2807226106 0.7192773894 0.7500000000  Biso 1.0 Pd
Sr3 1.0000000000 0.5652397005 0.4347602995 0.7500000000  Biso 1.0 Sr
Sr4 1.0000000000 0.4347602995 0.5652397005 0.2500000000  Biso 1.0 Sr
Tl5 1.0000000000 0.8538987202 0.1461012798 0.5511645366  Biso 1.0 Tl
Tl6 1.0000000000 0.1461012798 0.8538987202 0.0511645366  Biso 1.0 Tl
Tl7 1.0000000000 0.8538987202 0.1461012798 0.9488354634  Biso 1.0 Tl
Tl8 1.0000000000 0.1461012798 0.8538987202 0.4488354634  Biso 1.0 Tl
