# AFLOW.org Repositories
# Pd1Sb1Zr1   [ORC,ORC,oP12] (STD_PRIM doi
data_Pd1Sb1Zr1
_pd_phase_name Pd1Sb1Zr1
_cell_length_a  4.3454694968
_cell_length_b  6.8642255628
_cell_length_c  8.0100481982
_cell_angle_alpha  90.0000000000
_cell_angle_beta  90.0000000000
_cell_angle_gamma  90.0000000000
_symmetry_space_group_name_H-M  'P1'
_symmetry_Int_Tables_Number  1
loop_
_symmetry_equiv_pos_site_id
_symmetry_equiv_pos_as_xyz
  1  x,y,z
loop_
 _atom_site_label
 _atom_site_occupancy
 _atom_site_fract_x
 _atom_site_fract_y
 _atom_site_fract_z
 _atom_site_thermal_displace_type
 _atom_site_B_iso_or_equiv
 _atom_site_type_symbol
Pd1 1.0000000000 0.2500000000 0.6611351685 0.9279572493  Biso 1.0 Pd
Pd2 1.0000000000 0.7500000000 0.8388648315 0.4279572493  Biso 1.0 Pd
Pd3 1.0000000000 0.7500000000 0.3388648315 0.0720427507  Biso 1.0 Pd
Pd4 1.0000000000 0.2500000000 0.1611351685 0.5720427507  Biso 1.0 Pd
Sb5 1.0000000000 0.2500000000 0.2641592288 0.8927252451  Biso 1.0 Sb
Sb6 1.0000000000 0.7500000000 0.2358407712 0.3927252451  Biso 1.0 Sb
Sb7 1.0000000000 0.7500000000 0.7358407712 0.1072747549  Biso 1.0 Sb
Sb8 1.0000000000 0.2500000000 0.7641592288 0.6072747549  Biso 1.0 Sb
Zr9 1.0000000000 0.2500000000 0.5189623365 0.3035324353  Biso 1.0 Zr
Zr10 1.0000000000 0.7500000000 0.9810376635 0.8035324353  Biso 1.0 Zr
Zr11 1.0000000000 0.7500000000 0.4810376635 0.6964675647  Biso 1.0 Zr
Zr12 1.0000000000 0.2500000000 0.0189623365 0.1964675647  Biso 1.0 Zr
