# AFLOW.org Repositories
# Pd1Sc1Si1   [ORC,ORC,oP12] (STD_PRIM doi
data_Pd1Sc1Si1
_pd_phase_name Pd1Sc1Si1
_cell_length_a  4.1146634338
_cell_length_b  6.6429310697
_cell_length_c  7.4644672480
_cell_angle_alpha  90.0000000000
_cell_angle_beta  90.0000000000
_cell_angle_gamma  90.0000000000
_symmetry_space_group_name_H-M  'P1'
_symmetry_Int_Tables_Number  1
loop_
_symmetry_equiv_pos_site_id
_symmetry_equiv_pos_as_xyz
  1  x,y,z
loop_
 _atom_site_label
 _atom_site_occupancy
 _atom_site_fract_x
 _atom_site_fract_y
 _atom_site_fract_z
 _atom_site_thermal_displace_type
 _atom_site_B_iso_or_equiv
 _atom_site_type_symbol
Pd1 1.0000000000 0.2500000000 0.1724526146 0.9270874144  Biso 1.0 Pd
Pd2 1.0000000000 0.7500000000 0.3275473854 0.4270874144  Biso 1.0 Pd
Pd3 1.0000000000 0.7500000000 0.8275473854 0.0729125856  Biso 1.0 Pd
Pd4 1.0000000000 0.2500000000 0.6724526146 0.5729125856  Biso 1.0 Pd
Sc5 1.0000000000 0.2500000000 0.0083622338 0.3063128637  Biso 1.0 Sc
Sc6 1.0000000000 0.7500000000 0.4916377662 0.8063128637  Biso 1.0 Sc
Sc7 1.0000000000 0.7500000000 0.9916377662 0.6936871363  Biso 1.0 Sc
Sc8 1.0000000000 0.2500000000 0.5083622338 0.1936871363  Biso 1.0 Sc
Si9 1.0000000000 0.2500000000 0.2843602810 0.6060144132  Biso 1.0 Si
Si10 1.0000000000 0.7500000000 0.2156397190 0.1060144132  Biso 1.0 Si
Si11 1.0000000000 0.7500000000 0.7156397190 0.3939855868  Biso 1.0 Si
Si12 1.0000000000 0.2500000000 0.7843602810 0.8939855868  Biso 1.0 Si
