# AFLOW.org Repositories
# Pd2Si1Y1   [ORC,ORC,oP16] (STD_PRIM doi:
data_Pd2Si1Y1
_pd_phase_name Pd2Si1Y1
_cell_length_a  5.5330994214
_cell_length_b  6.9724660888
_cell_length_c  7.3397614598
_cell_angle_alpha  90.0000000000
_cell_angle_beta  90.0000000000
_cell_angle_gamma  90.0000000000
_symmetry_space_group_name_H-M  'P1'
_symmetry_Int_Tables_Number  1
loop_
_symmetry_equiv_pos_site_id
_symmetry_equiv_pos_as_xyz
  1  x,y,z
loop_
 _atom_site_label
 _atom_site_occupancy
 _atom_site_fract_x
 _atom_site_fract_y
 _atom_site_fract_z
 _atom_site_thermal_displace_type
 _atom_site_B_iso_or_equiv
 _atom_site_type_symbol
Pd1 1.0000000000 0.5951257945 0.9484275561 0.1771599881  Biso 1.0 Pd
Pd2 1.0000000000 0.0951257945 0.0515724439 0.3228400119  Biso 1.0 Pd
Pd3 1.0000000000 0.4048742055 0.4484275561 0.8228400119  Biso 1.0 Pd
Pd4 1.0000000000 0.9048742055 0.5515724439 0.6771599881  Biso 1.0 Pd
Pd5 1.0000000000 0.4048742055 0.0515724439 0.8228400119  Biso 1.0 Pd
Pd6 1.0000000000 0.9048742055 0.9484275561 0.6771599881  Biso 1.0 Pd
Pd7 1.0000000000 0.5951257945 0.5515724439 0.1771599881  Biso 1.0 Pd
Pd8 1.0000000000 0.0951257945 0.4484275561 0.3228400119  Biso 1.0 Pd
Si9 1.0000000000 0.8558588896 0.7500000000 0.3776673088  Biso 1.0 Si
Si10 1.0000000000 0.3558588896 0.2500000000 0.1223326912  Biso 1.0 Si
Si11 1.0000000000 0.1441411104 0.2500000000 0.6223326912  Biso 1.0 Si
Si12 1.0000000000 0.6441411104 0.7500000000 0.8776673088  Biso 1.0 Si
Y13 1.0000000000 0.1426173510 0.7500000000 0.0290836538  Biso 1.0 Y
Y14 1.0000000000 0.6426173510 0.2500000000 0.4709163462  Biso 1.0 Y
Y15 1.0000000000 0.8573826490 0.2500000000 0.9709163462  Biso 1.0 Y
Y16 1.0000000000 0.3573826490 0.7500000000 0.5290836538  Biso 1.0 Y
