# AFLOW.org Repositories
# Pd2Si1Tb1   [ORC,ORC,oP16] (STD_PRIM doi
data_Pd2Si1Tb1
_pd_phase_name Pd2Si1Tb1
_cell_length_a  5.5544780577
_cell_length_b  6.9549387873
_cell_length_c  7.3607780382
_cell_angle_alpha  90.0000000000
_cell_angle_beta  90.0000000000
_cell_angle_gamma  90.0000000000
_symmetry_space_group_name_H-M  'P1'
_symmetry_Int_Tables_Number  1
loop_
_symmetry_equiv_pos_site_id
_symmetry_equiv_pos_as_xyz
  1  x,y,z
loop_
 _atom_site_label
 _atom_site_occupancy
 _atom_site_fract_x
 _atom_site_fract_y
 _atom_site_fract_z
 _atom_site_thermal_displace_type
 _atom_site_B_iso_or_equiv
 _atom_site_type_symbol
Pd1 1.0000000000 0.0942813166 0.9489463573 0.1772675984  Biso 1.0 Pd
Pd2 1.0000000000 0.5942813166 0.0510536427 0.3227324016  Biso 1.0 Pd
Pd3 1.0000000000 0.9057186834 0.4489463573 0.8227324016  Biso 1.0 Pd
Pd4 1.0000000000 0.4057186834 0.5510536427 0.6772675984  Biso 1.0 Pd
Pd5 1.0000000000 0.9057186834 0.0510536427 0.8227324016  Biso 1.0 Pd
Pd6 1.0000000000 0.4057186834 0.9489463573 0.6772675984  Biso 1.0 Pd
Pd7 1.0000000000 0.0942813166 0.5510536427 0.1772675984  Biso 1.0 Pd
Pd8 1.0000000000 0.5942813166 0.4489463573 0.3227324016  Biso 1.0 Pd
Si9 1.0000000000 0.3537588900 0.7500000000 0.3777194324  Biso 1.0 Si
Si10 1.0000000000 0.8537588900 0.2500000000 0.1222805676  Biso 1.0 Si
Si11 1.0000000000 0.6462411100 0.2500000000 0.6222805676  Biso 1.0 Si
Si12 1.0000000000 0.1462411100 0.7500000000 0.8777194324  Biso 1.0 Si
Tb13 1.0000000000 0.6446640227 0.7500000000 0.0295949538  Biso 1.0 Tb
Tb14 1.0000000000 0.1446640227 0.2500000000 0.4704050462  Biso 1.0 Tb
Tb15 1.0000000000 0.3553359773 0.2500000000 0.9704050462  Biso 1.0 Tb
Tb16 1.0000000000 0.8553359773 0.7500000000 0.5295949538  Biso 1.0 Tb
