# AFLOW.org Repositories
# Pd2Si2U1   [BCT,BCT2,tI10] (STD_PRIM doi
data_Pd2Si2U1
_pd_phase_name Pd2Si2U1
_cell_length_a  5.8290005917
_cell_length_b  5.8290005917
_cell_length_c  5.8290005917
_cell_angle_alpha  137.7357111603
_cell_angle_beta  137.7357111603
_cell_angle_gamma  61.3080111427
_symmetry_space_group_name_H-M  'P1'
_symmetry_Int_Tables_Number  1
loop_
_symmetry_equiv_pos_site_id
_symmetry_equiv_pos_as_xyz
  1  x,y,z
loop_
 _atom_site_label
 _atom_site_occupancy
 _atom_site_fract_x
 _atom_site_fract_y
 _atom_site_fract_z
 _atom_site_thermal_displace_type
 _atom_site_B_iso_or_equiv
 _atom_site_type_symbol
Pd1 1.0000000000 0.2500000000 0.7500000000 0.5000000000  Biso 1.0 Pd
Pd2 1.0000000000 0.7500000000 0.2500000000 0.5000000000  Biso 1.0 Pd
Si3 1.0000000000 0.3826129268 0.3826129268 0.0000000000  Biso 1.0 Si
Si4 1.0000000000 0.6173870732 0.6173870732 0.0000000000  Biso 1.0 Si
U5 1.0000000000 0.0000000000 0.0000000000 0.0000000000  Biso 1.0 U
