# AFLOW.org Repositories
# Pd2Si1   [HEX,HEX,hP9] (STD_PRIM doi:10.
data_Pd2Si1
_pd_phase_name Pd2Si1
_cell_length_a  6.5286455830
_cell_length_b  6.5286455830
_cell_length_c  3.4660999026
_cell_angle_alpha  90.0000000000
_cell_angle_beta  90.0000000000
_cell_angle_gamma  120.0000000000
_symmetry_space_group_name_H-M  'P1'
_symmetry_Int_Tables_Number  1
loop_
_symmetry_equiv_pos_site_id
_symmetry_equiv_pos_as_xyz
  1  x,y,z
loop_
 _atom_site_label
 _atom_site_occupancy
 _atom_site_fract_x
 _atom_site_fract_y
 _atom_site_fract_z
 _atom_site_thermal_displace_type
 _atom_site_B_iso_or_equiv
 _atom_site_type_symbol
Pd1 1.0000000000 0.0000000000 0.7349506780 0.0000000000  Biso 1.0 Pd
Pd2 1.0000000000 0.2650493220 0.2650493220 0.0000000000  Biso 1.0 Pd
Pd3 1.0000000000 0.7349308905 0.0000000000 0.0000000000  Biso 1.0 Pd
Pd4 1.0000000000 0.0000000000 0.3949601444 0.5000000000  Biso 1.0 Pd
Pd5 1.0000000000 0.6050398556 0.6050398556 0.5000000000  Biso 1.0 Pd
Pd6 1.0000000000 0.3949666711 0.0000000000 0.5000000000  Biso 1.0 Pd
Si7 1.0000000000 0.6666694690 0.3333353949 0.0000000000  Biso 1.0 Si
Si8 1.0000000000 0.3333340741 0.6666646051 0.0000000000  Biso 1.0 Si
Si9 1.0000000000 0.0000000000 0.0000000000 0.5000000000  Biso 1.0 Si
