# AFLOW.org Repositories
# Pd3Te2   [ORCC,ORCC,oS20] (STD_PRIM doi:
data_Pd3Te2
_pd_phase_name Pd3Te2
_cell_length_a  6.6945171608
_cell_length_b  6.6945171608
_cell_length_c  8.0290718112
_cell_angle_alpha  90.0000000000
_cell_angle_beta  90.0000000000
_cell_angle_gamma  146.4076741073
_symmetry_space_group_name_H-M  'P1'
_symmetry_Int_Tables_Number  1
loop_
_symmetry_equiv_pos_site_id
_symmetry_equiv_pos_as_xyz
  1  x,y,z
loop_
 _atom_site_label
 _atom_site_occupancy
 _atom_site_fract_x
 _atom_site_fract_y
 _atom_site_fract_z
 _atom_site_thermal_displace_type
 _atom_site_B_iso_or_equiv
 _atom_site_type_symbol
Pd1 1.0000000000 0.5343311252 0.4656688748 0.7500000000  Biso 1.0 Pd
Pd2 1.0000000000 0.4656688748 0.5343311252 0.2500000000  Biso 1.0 Pd
Pd3 1.0000000000 0.6624431938 0.3375568062 0.0672109507  Biso 1.0 Pd
Pd4 1.0000000000 0.3375568062 0.6624431938 0.5672109507  Biso 1.0 Pd
Pd5 1.0000000000 0.6624431938 0.3375568062 0.4327890493  Biso 1.0 Pd
Pd6 1.0000000000 0.3375568062 0.6624431938 0.9327890493  Biso 1.0 Pd
Te7 1.0000000000 0.0000000000 0.0000000000 0.0000000000  Biso 1.0 Te
Te8 1.0000000000 0.0000000000 0.0000000000 0.5000000000  Biso 1.0 Te
Te9 1.0000000000 0.7423292012 0.2576707988 0.7500000000  Biso 1.0 Te
Te10 1.0000000000 0.2576707988 0.7423292012 0.2500000000  Biso 1.0 Te
