# AFLOW.org Repositories
# Pd4Se1   [TET,TET,tP10] (STD_PRIM doi:10
data_Pd4Se1
_pd_phase_name Pd4Se1
_cell_length_a  5.2977140849
_cell_length_b  5.2977140849
_cell_length_c  5.7188018705
_cell_angle_alpha  90.0000000000
_cell_angle_beta  90.0000000000
_cell_angle_gamma  90.0000000000
_symmetry_space_group_name_H-M  'P1'
_symmetry_Int_Tables_Number  1
loop_
_symmetry_equiv_pos_site_id
_symmetry_equiv_pos_as_xyz
  1  x,y,z
loop_
 _atom_site_label
 _atom_site_occupancy
 _atom_site_fract_x
 _atom_site_fract_y
 _atom_site_fract_z
 _atom_site_thermal_displace_type
 _atom_site_B_iso_or_equiv
 _atom_site_type_symbol
Pd1 1.0000000000 0.3699391524 0.2306190154 0.1564396615  Biso 1.0 Pd
Pd2 1.0000000000 0.6300608476 0.7693809846 0.1564396615  Biso 1.0 Pd
Pd3 1.0000000000 0.2306190154 0.6300608476 0.8435603385  Biso 1.0 Pd
Pd4 1.0000000000 0.7693809846 0.3699391524 0.8435603385  Biso 1.0 Pd
Pd5 1.0000000000 0.1300608476 0.7306190154 0.3435603385  Biso 1.0 Pd
Pd6 1.0000000000 0.8699391524 0.2693809846 0.3435603385  Biso 1.0 Pd
Pd7 1.0000000000 0.2693809846 0.1300608476 0.6564396615  Biso 1.0 Pd
Pd8 1.0000000000 0.7306190154 0.8699391524 0.6564396615  Biso 1.0 Pd
Se9 1.0000000000 0.0000000000 0.0000000000 0.0000000000  Biso 1.0 Se
Se10 1.0000000000 0.5000000000 0.5000000000 0.5000000000  Biso 1.0 Se
