# AFLOW.org Repositories
# Pt1Sc1Si1   [ORC,ORC,oP12] (STD_PRIM doi
data_Pt1Sc1Si1
_pd_phase_name Pt1Sc1Si1
_cell_length_a  4.1717171740
_cell_length_b  6.6551931573
_cell_length_c  7.3287556197
_cell_angle_alpha  90.0000000000
_cell_angle_beta  90.0000000000
_cell_angle_gamma  90.0000000000
_symmetry_space_group_name_H-M  'P1'
_symmetry_Int_Tables_Number  1
loop_
_symmetry_equiv_pos_site_id
_symmetry_equiv_pos_as_xyz
  1  x,y,z
loop_
 _atom_site_label
 _atom_site_occupancy
 _atom_site_fract_x
 _atom_site_fract_y
 _atom_site_fract_z
 _atom_site_thermal_displace_type
 _atom_site_B_iso_or_equiv
 _atom_site_type_symbol
Pt1 1.0000000000 0.2500000000 0.1983779227 0.9162994809  Biso 1.0 Pt
Pt2 1.0000000000 0.7500000000 0.3016220773 0.4162994809  Biso 1.0 Pt
Pt3 1.0000000000 0.7500000000 0.8016220773 0.0837005191  Biso 1.0 Pt
Pt4 1.0000000000 0.2500000000 0.6983779227 0.5837005191  Biso 1.0 Pt
Sc5 1.0000000000 0.2500000000 0.0000000000 0.2996008028  Biso 1.0 Sc
Sc6 1.0000000000 0.7500000000 0.5006052108 0.7996008028  Biso 1.0 Sc
Sc7 1.0000000000 0.7500000000 0.0000000000 0.7003991972  Biso 1.0 Sc
Sc8 1.0000000000 0.2500000000 0.4993947892 0.2003991972  Biso 1.0 Sc
Si9 1.0000000000 0.2500000000 0.3068202648 0.5920811275  Biso 1.0 Si
Si10 1.0000000000 0.7500000000 0.1931797352 0.0920811275  Biso 1.0 Si
Si11 1.0000000000 0.7500000000 0.6931797352 0.4079188725  Biso 1.0 Si
Si12 1.0000000000 0.2500000000 0.8068202648 0.9079188725  Biso 1.0 Si
