# AFLOW.org Repositories
# Pt1Sc1Zn1   [ORCC,ORCC,oS12] (STD_PRIM d
data_Pt1Sc1Zn1
_pd_phase_name Pt1Sc1Zn1
_cell_length_a  5.1702595052
_cell_length_b  5.1702595052
_cell_length_c  5.3026129234
_cell_angle_alpha  90.0000000000
_cell_angle_beta  90.0000000000
_cell_angle_gamma  131.9383009334
_symmetry_space_group_name_H-M  'P1'
_symmetry_Int_Tables_Number  1
loop_
_symmetry_equiv_pos_site_id
_symmetry_equiv_pos_as_xyz
  1  x,y,z
loop_
 _atom_site_label
 _atom_site_occupancy
 _atom_site_fract_x
 _atom_site_fract_y
 _atom_site_fract_z
 _atom_site_thermal_displace_type
 _atom_site_B_iso_or_equiv
 _atom_site_type_symbol
Pt1 1.0000000000 0.5969417766 0.4030582234 0.7500000000  Biso 1.0 Pt
Pt2 1.0000000000 0.4030582234 0.5969417766 0.2500000000  Biso 1.0 Pt
Sc3 1.0000000000 0.2917993812 0.7082006188 0.7500000000  Biso 1.0 Sc
Sc4 1.0000000000 0.7082006188 0.2917993812 0.2500000000  Biso 1.0 Sc
Zn5 1.0000000000 0.0000000000 0.0000000000 0.0000000000  Biso 1.0 Zn
Zn6 1.0000000000 0.0000000000 0.0000000000 0.5000000000  Biso 1.0 Zn
