# AFLOW.org Repositories
# Pt1Sn1U1   [HEX,HEX,hP9] (STD_PRIM doi:1
data_Pt1Sn1U1
_pd_phase_name Pt1Sn1U1
_cell_length_a  7.6824598312
_cell_length_b  7.6824598312
_cell_length_c  4.1923671925
_cell_angle_alpha  90.0000000000
_cell_angle_beta  90.0000000000
_cell_angle_gamma  120.0000000000
_symmetry_space_group_name_H-M  'P1'
_symmetry_Int_Tables_Number  1
loop_
_symmetry_equiv_pos_site_id
_symmetry_equiv_pos_as_xyz
  1  x,y,z
loop_
 _atom_site_label
 _atom_site_occupancy
 _atom_site_fract_x
 _atom_site_fract_y
 _atom_site_fract_z
 _atom_site_thermal_displace_type
 _atom_site_B_iso_or_equiv
 _atom_site_type_symbol
Pt1 1.0000000000 0.3330944179 0.6663192489 0.0000000000  Biso 1.0 Pt
Pt2 1.0000000000 0.6663192489 0.3330944179 0.0000000000  Biso 1.0 Pt
Pt3 1.0000000000 0.0012794595 0.0012794595 0.5000000000  Biso 1.0 Pt
Sn4 1.0000000000 0.2505469113 0.0000000000 0.0000000000  Biso 1.0 Sn
Sn5 1.0000000000 0.0000000000 0.2505469113 0.0000000000  Biso 1.0 Sn
Sn6 1.0000000000 0.7518237750 0.7518237750 0.0000000000  Biso 1.0 Sn
U7 1.0000000000 0.5783360265 0.9964911193 0.5000000000  Biso 1.0 U
U8 1.0000000000 0.9964911193 0.5783360265 0.5000000000  Biso 1.0 U
U9 1.0000000000 0.4213362396 0.4213362396 0.5000000000  Biso 1.0 U
