# AFLOW.org Repositories
# Pt1Sb2   [CUB,CUB,cP12] (STD_PRIM doi:10
data_Pt1Sb2
_pd_phase_name Pt1Sb2
_cell_length_a  6.5288834109
_cell_length_b  6.5288834109
_cell_length_c  6.5288834109
_cell_angle_alpha  90.0000000000
_cell_angle_beta  90.0000000000
_cell_angle_gamma  90.0000000000
_symmetry_space_group_name_H-M  'P1'
_symmetry_Int_Tables_Number  1
loop_
_symmetry_equiv_pos_site_id
_symmetry_equiv_pos_as_xyz
  1  x,y,z
loop_
 _atom_site_label
 _atom_site_occupancy
 _atom_site_fract_x
 _atom_site_fract_y
 _atom_site_fract_z
 _atom_site_thermal_displace_type
 _atom_site_B_iso_or_equiv
 _atom_site_type_symbol
Pt1 1.0000000000 0.0000000000 0.0000000000 0.0000000000  Biso 1.0 Pt
Pt2 1.0000000000 0.5000000000 0.0000000000 0.5000000000  Biso 1.0 Pt
Pt3 1.0000000000 0.0000000000 0.5000000000 0.5000000000  Biso 1.0 Pt
Pt4 1.0000000000 0.5000000000 0.5000000000 0.0000000000  Biso 1.0 Pt
Sb5 1.0000000000 0.6258104587 0.6258104587 0.3741895413  Biso 1.0 Sb
Sb6 1.0000000000 0.8741895413 0.3741895413 0.8741895413  Biso 1.0 Sb
Sb7 1.0000000000 0.3741895413 0.1258104587 0.1258104587  Biso 1.0 Sb
Sb8 1.0000000000 0.1258104587 0.8741895413 0.6258104587  Biso 1.0 Sb
Sb9 1.0000000000 0.3741895413 0.3741895413 0.6258104587  Biso 1.0 Sb
Sb10 1.0000000000 0.1258104587 0.6258104587 0.1258104587  Biso 1.0 Sb
Sb11 1.0000000000 0.6258104587 0.8741895413 0.8741895413  Biso 1.0 Sb
Sb12 1.0000000000 0.8741895413 0.1258104587 0.3741895413  Biso 1.0 Sb
