# AFLOW.org Repositories
# Pt1S1   [TET,TET,tP16] (STD_PRIM doi:10.
data_Pt1S1
_pd_phase_name Pt1S1
_cell_length_a  6.4880639351
_cell_length_b  6.4880639351
_cell_length_c  6.6591555752
_cell_angle_alpha  90.0000000000
_cell_angle_beta  90.0000000000
_cell_angle_gamma  90.0000000000
_symmetry_space_group_name_H-M  'P1'
_symmetry_Int_Tables_Number  1
loop_
_symmetry_equiv_pos_site_id
_symmetry_equiv_pos_as_xyz
  1  x,y,z
loop_
 _atom_site_label
 _atom_site_occupancy
 _atom_site_fract_x
 _atom_site_fract_y
 _atom_site_fract_z
 _atom_site_thermal_displace_type
 _atom_site_B_iso_or_equiv
 _atom_site_type_symbol
Pt1 1.0000000000 0.0000000000 0.0000000000 0.2500000000  Biso 1.0 Pt
Pt2 1.0000000000 0.0000000000 0.0000000000 0.7500000000  Biso 1.0 Pt
Pt3 1.0000000000 0.5000000000 0.0000000000 0.0000000000  Biso 1.0 Pt
Pt4 1.0000000000 0.0000000000 0.5000000000 0.5000000000  Biso 1.0 Pt
Pt5 1.0000000000 0.2562500451 0.4693286982 0.0000000000  Biso 1.0 Pt
Pt6 1.0000000000 0.7437499549 0.5306713018 0.0000000000  Biso 1.0 Pt
Pt7 1.0000000000 0.5306713018 0.2562500451 0.5000000000  Biso 1.0 Pt
Pt8 1.0000000000 0.4693286982 0.7437499549 0.5000000000  Biso 1.0 Pt
S9 1.0000000000 0.3077027439 0.1932244692 0.2270281395  Biso 1.0 S
S10 1.0000000000 0.6922972561 0.8067755308 0.2270281395  Biso 1.0 S
S11 1.0000000000 0.8067755308 0.3077027439 0.7270281395  Biso 1.0 S
S12 1.0000000000 0.1932244692 0.6922972561 0.7270281395  Biso 1.0 S
S13 1.0000000000 0.6922972561 0.8067755308 0.7729718605  Biso 1.0 S
S14 1.0000000000 0.3077027439 0.1932244692 0.7729718605  Biso 1.0 S
S15 1.0000000000 0.1932244692 0.6922972561 0.2729718605  Biso 1.0 S
S16 1.0000000000 0.8067755308 0.3077027439 0.2729718605  Biso 1.0 S
