# AFLOW.org Repositories
# Pt1Se1Si1   [ORC,ORC,oP12] (STD_PRIM doi
data_Pt1Se1Si1
_pd_phase_name Pt1Se1Si1
_cell_length_a  5.9179060199
_cell_length_b  5.9699367473
_cell_length_c  6.0807570125
_cell_angle_alpha  90.0000000000
_cell_angle_beta  90.0000000000
_cell_angle_gamma  90.0000000000
_symmetry_space_group_name_H-M  'P1'
_symmetry_Int_Tables_Number  1
loop_
_symmetry_equiv_pos_site_id
_symmetry_equiv_pos_as_xyz
  1  x,y,z
loop_
 _atom_site_label
 _atom_site_occupancy
 _atom_site_fract_x
 _atom_site_fract_y
 _atom_site_fract_z
 _atom_site_thermal_displace_type
 _atom_site_B_iso_or_equiv
 _atom_site_type_symbol
Pt1 1.0000000000 0.0053590261 0.9817250745 0.2281936034  Biso 1.0 Pt
Pt2 1.0000000000 0.5053590261 0.0182749255 0.7718063966  Biso 1.0 Pt
Pt3 1.0000000000 0.0053590261 0.4817250745 0.7718063966  Biso 1.0 Pt
Pt4 1.0000000000 0.5053590261 0.5182749255 0.2281936034  Biso 1.0 Pt
Se5 1.0000000000 0.6103239640 0.6149673410 0.6403493014  Biso 1.0 Se
Se6 1.0000000000 0.1103239640 0.3850326590 0.3596506986  Biso 1.0 Se
Se7 1.0000000000 0.6103239640 0.1149673410 0.3596506986  Biso 1.0 Se
Se8 1.0000000000 0.1103239640 0.8850326590 0.6403493014  Biso 1.0 Se
Si9 1.0000000000 0.3853170099 0.3862445026 0.8764760697  Biso 1.0 Si
Si10 1.0000000000 0.8853170099 0.6137554974 0.1235239303  Biso 1.0 Si
Si11 1.0000000000 0.3853170099 0.8862445026 0.1235239303  Biso 1.0 Si
Si12 1.0000000000 0.8853170099 0.1137554974 0.8764760697  Biso 1.0 Si
