# AFLOW.org Repositories
# Pt1Zr2   [FCC,FCC,cF96] (STD_PRIM doi:10
data_Pt1Zr2
_pd_phase_name Pt1Zr2
_cell_length_a  8.8873627965
_cell_length_b  8.8873627965
_cell_length_c  8.8873627965
_cell_angle_alpha  60.0000000000
_cell_angle_beta  60.0000000000
_cell_angle_gamma  60.0000000000
_symmetry_space_group_name_H-M  'P1'
_symmetry_Int_Tables_Number  1
loop_
_symmetry_equiv_pos_site_id
_symmetry_equiv_pos_as_xyz
  1  x,y,z
loop_
 _atom_site_label
 _atom_site_occupancy
 _atom_site_fract_x
 _atom_site_fract_y
 _atom_site_fract_z
 _atom_site_thermal_displace_type
 _atom_site_B_iso_or_equiv
 _atom_site_type_symbol
Pt1 1.0000000000 0.2206686478 0.3379940565 0.2206686478  Biso 1.0 Pt
Pt2 1.0000000000 0.8379940565 0.7206686478 0.2206686478  Biso 1.0 Pt
Pt3 1.0000000000 0.2206686478 0.7206686478 0.2206686478  Biso 1.0 Pt
Pt4 1.0000000000 0.2206686478 0.7206686478 0.8379940565  Biso 1.0 Pt
Pt5 1.0000000000 0.1620059435 0.2793313522 0.7793313522  Biso 1.0 Pt
Pt6 1.0000000000 0.7793313522 0.6620059435 0.7793313522  Biso 1.0 Pt
Pt7 1.0000000000 0.7793313522 0.2793313522 0.7793313522  Biso 1.0 Pt
Pt8 1.0000000000 0.7793313522 0.2793313522 0.1620059435  Biso 1.0 Pt
Zr9 1.0000000000 0.0000000000 0.0000000000 0.0000000000  Biso 1.0 Zr
Zr10 1.0000000000 0.5000000000 0.5000000000 0.0000000000  Biso 1.0 Zr
Zr11 1.0000000000 0.0000000000 0.5000000000 0.0000000000  Biso 1.0 Zr
Zr12 1.0000000000 0.0000000000 0.5000000000 0.5000000000  Biso 1.0 Zr
Zr13 1.0000000000 0.4376362220 0.3123637780 0.8123637780  Biso 1.0 Zr
Zr14 1.0000000000 0.8123637780 0.9376362220 0.4376362220  Biso 1.0 Zr
Zr15 1.0000000000 0.4376362220 0.3123637780 0.4376362220  Biso 1.0 Zr
Zr16 1.0000000000 0.8123637780 0.9376362220 0.8123637780  Biso 1.0 Zr
Zr17 1.0000000000 0.8123637780 0.3123637780 0.4376362220  Biso 1.0 Zr
Zr18 1.0000000000 0.4376362220 0.9376362220 0.8123637780  Biso 1.0 Zr
Zr19 1.0000000000 0.1876362220 0.0623637780 0.1876362220  Biso 1.0 Zr
Zr20 1.0000000000 0.5623637780 0.6876362220 0.5623637780  Biso 1.0 Zr
Zr21 1.0000000000 0.1876362220 0.0623637780 0.5623637780  Biso 1.0 Zr
Zr22 1.0000000000 0.5623637780 0.6876362220 0.1876362220  Biso 1.0 Zr
Zr23 1.0000000000 0.1876362220 0.6876362220 0.5623637780  Biso 1.0 Zr
Zr24 1.0000000000 0.5623637780 0.0623637780 0.1876362220  Biso 1.0 Zr
