# AFLOW.org Repositories
# Pt2Si1   [HEX,HEX,hP9] (STD_PRIM doi:10.
data_Pt2Si1
_pd_phase_name Pt2Si1
_cell_length_a  6.4866123320
_cell_length_b  6.4866123320
_cell_length_c  3.5925975345
_cell_angle_alpha  90.0000000000
_cell_angle_beta  90.0000000000
_cell_angle_gamma  120.0000000000
_symmetry_space_group_name_H-M  'P1'
_symmetry_Int_Tables_Number  1
loop_
_symmetry_equiv_pos_site_id
_symmetry_equiv_pos_as_xyz
  1  x,y,z
loop_
 _atom_site_label
 _atom_site_occupancy
 _atom_site_fract_x
 _atom_site_fract_y
 _atom_site_fract_z
 _atom_site_thermal_displace_type
 _atom_site_B_iso_or_equiv
 _atom_site_type_symbol
Pt1 1.0000000000 0.0000000000 0.7254393487 0.0000000000  Biso 1.0 Pt
Pt2 1.0000000000 0.2745606513 0.2745606513 0.0000000000  Biso 1.0 Pt
Pt3 1.0000000000 0.7254404007 0.0000000000 0.0000000000  Biso 1.0 Pt
Pt4 1.0000000000 0.0000000000 0.3851216303 0.5000000000  Biso 1.0 Pt
Pt5 1.0000000000 0.6148783697 0.6148783697 0.5000000000  Biso 1.0 Pt
Pt6 1.0000000000 0.3851197246 0.0000000000 0.5000000000  Biso 1.0 Pt
Si7 1.0000000000 0.6666657136 0.3333344186 0.0000000000  Biso 1.0 Si
Si8 1.0000000000 0.3333312950 0.6666655814 0.0000000000  Biso 1.0 Si
Si9 1.0000000000 0.0000000000 0.0000000000 0.5000000000  Biso 1.0 Si
