# AFLOW.org Repositories
# Pt2Si2Th1   [BCT,BCT2,tI10] (STD_PRIM do
data_Pt2Si2Th1
_pd_phase_name Pt2Si2Th1
_cell_length_a  5.8533740647
_cell_length_b  5.8533740647
_cell_length_c  5.8533740647
_cell_angle_alpha  136.9946954318
_cell_angle_beta  136.9946954318
_cell_angle_gamma  62.4462120292
_symmetry_space_group_name_H-M  'P1'
_symmetry_Int_Tables_Number  1
loop_
_symmetry_equiv_pos_site_id
_symmetry_equiv_pos_as_xyz
  1  x,y,z
loop_
 _atom_site_label
 _atom_site_occupancy
 _atom_site_fract_x
 _atom_site_fract_y
 _atom_site_fract_z
 _atom_site_thermal_displace_type
 _atom_site_B_iso_or_equiv
 _atom_site_type_symbol
Pt1 1.0000000000 0.2500000000 0.7500000000 0.5000000000  Biso 1.0 Pt
Pt2 1.0000000000 0.7500000000 0.2500000000 0.5000000000  Biso 1.0 Pt
Si3 1.0000000000 0.6224586538 0.6224586538 0.0000000000  Biso 1.0 Si
Si4 1.0000000000 0.3775413462 0.3775413462 0.0000000000  Biso 1.0 Si
Th5 1.0000000000 0.0000000000 0.0000000000 0.0000000000  Biso 1.0 Th
