# AFLOW.org Repositories
# Pt3Tl2   [HEX,HEX,hP20] (STD_PRIM doi:10
data_Pt3Tl2
_pd_phase_name Pt3Tl2
_cell_length_a  5.7133155488
_cell_length_b  5.7133155488
_cell_length_c  14.0400784827
_cell_angle_alpha  90.0000000000
_cell_angle_beta  90.0000000000
_cell_angle_gamma  120.0000000000
_symmetry_space_group_name_H-M  'P1'
_symmetry_Int_Tables_Number  1
loop_
_symmetry_equiv_pos_site_id
_symmetry_equiv_pos_as_xyz
  1  x,y,z
loop_
 _atom_site_label
 _atom_site_occupancy
 _atom_site_fract_x
 _atom_site_fract_y
 _atom_site_fract_z
 _atom_site_thermal_displace_type
 _atom_site_B_iso_or_equiv
 _atom_site_type_symbol
Pt1 1.0000000000 0.3315625849 0.1657385362 0.0864428984  Biso 1.0 Pt
Pt2 1.0000000000 0.8342346803 0.1657973128 0.0864420814  Biso 1.0 Pt
Pt3 1.0000000000 0.8341911550 0.6684416606 0.0864420226  Biso 1.0 Pt
Pt4 1.0000000000 0.8341759513 0.1657385362 0.4135571016  Biso 1.0 Pt
Pt5 1.0000000000 0.3315626326 0.1657973128 0.4135579186  Biso 1.0 Pt
Pt6 1.0000000000 0.8342505055 0.6684416606 0.4135579774  Biso 1.0 Pt
Pt7 1.0000000000 0.6684374151 0.8342614638 0.9135571016  Biso 1.0 Pt
Pt8 1.0000000000 0.1657653197 0.8342026872 0.9135579186  Biso 1.0 Pt
Pt9 1.0000000000 0.1658088450 0.3315583394 0.9135579774  Biso 1.0 Pt
Pt10 1.0000000000 0.1658240487 0.8342614638 0.5864428984  Biso 1.0 Pt
Pt11 1.0000000000 0.6684373674 0.8342026872 0.5864420814  Biso 1.0 Pt
Pt12 1.0000000000 0.1657494945 0.3315583394 0.5864420226  Biso 1.0 Pt
Tl13 1.0000000000 0.0000000000 0.0000000000 0.2500000000  Biso 1.0 Tl
Tl14 1.0000000000 0.0000000000 0.0000000000 0.7500000000  Biso 1.0 Tl
Tl15 1.0000000000 0.6666752319 0.3333504637 0.2500000000  Biso 1.0 Tl
Tl16 1.0000000000 0.3333247681 0.6666495363 0.7500000000  Biso 1.0 Tl
Tl17 1.0000000000 0.6666777898 0.3333557505 0.9088462588  Biso 1.0 Tl
Tl18 1.0000000000 0.6666779607 0.3333557505 0.5911537412  Biso 1.0 Tl
Tl19 1.0000000000 0.3333222102 0.6666442495 0.0911537412  Biso 1.0 Tl
Tl20 1.0000000000 0.3333220393 0.6666442495 0.4088462588  Biso 1.0 Tl
