# AFLOW.org Repositories
# Rb1Sb1   [ORC,ORC,oP16] (STD_PRIM doi:10
data_Rb1Sb1
_pd_phase_name Rb1Sb1
_cell_length_a  7.3626246695
_cell_length_b  7.4902624643
_cell_length_c  12.9998620194
_cell_angle_alpha  90.0000000000
_cell_angle_beta  90.0000000000
_cell_angle_gamma  90.0000000000
_symmetry_space_group_name_H-M  'P1'
_symmetry_Int_Tables_Number  1
loop_
_symmetry_equiv_pos_site_id
_symmetry_equiv_pos_as_xyz
  1  x,y,z
loop_
 _atom_site_label
 _atom_site_occupancy
 _atom_site_fract_x
 _atom_site_fract_y
 _atom_site_fract_z
 _atom_site_thermal_displace_type
 _atom_site_B_iso_or_equiv
 _atom_site_type_symbol
Rb1 1.0000000000 0.9215734910 0.4047260855 0.9608075196  Biso 1.0 Rb
Rb2 1.0000000000 0.0784265090 0.0952739145 0.4608075196  Biso 1.0 Rb
Rb3 1.0000000000 0.4215734910 0.5952739145 0.5391924804  Biso 1.0 Rb
Rb4 1.0000000000 0.5784265090 0.9047260855 0.0391924804  Biso 1.0 Rb
Rb5 1.0000000000 0.6557502623 0.1491289582 0.6693035443  Biso 1.0 Rb
Rb6 1.0000000000 0.3442497377 0.3508710418 0.1693035443  Biso 1.0 Rb
Rb7 1.0000000000 0.1557502623 0.8508710418 0.8306964557  Biso 1.0 Rb
Rb8 1.0000000000 0.8442497377 0.6491289582 0.3306964557  Biso 1.0 Rb
Sb9 1.0000000000 0.1601394491 0.3051235845 0.7151731330  Biso 1.0 Sb
Sb10 1.0000000000 0.8398605509 0.1948764155 0.2151731330  Biso 1.0 Sb
Sb11 1.0000000000 0.6601394491 0.6948764155 0.7848268670  Biso 1.0 Sb
Sb12 1.0000000000 0.3398605509 0.8051235845 0.2848268670  Biso 1.0 Sb
Sb13 1.0000000000 0.4226325192 0.4229954966 0.8687104061  Biso 1.0 Sb
Sb14 1.0000000000 0.5773674808 0.0770045034 0.3687104061  Biso 1.0 Sb
Sb15 1.0000000000 0.9226325192 0.5770045034 0.6312895939  Biso 1.0 Sb
Sb16 1.0000000000 0.0773674808 0.9229954966 0.1312895939  Biso 1.0 Sb
