# AFLOW.org Repositories
# Re1Si1   [CUB,CUB,cP8] (STD_PRIM doi:10.
data_Re1Si1
_pd_phase_name Re1Si1
_cell_length_a  4.8052800988
_cell_length_b  4.8052800988
_cell_length_c  4.8052800988
_cell_angle_alpha  90.0000000000
_cell_angle_beta  90.0000000000
_cell_angle_gamma  90.0000000000
_symmetry_space_group_name_H-M  'P1'
_symmetry_Int_Tables_Number  1
loop_
_symmetry_equiv_pos_site_id
_symmetry_equiv_pos_as_xyz
  1  x,y,z
loop_
 _atom_site_label
 _atom_site_occupancy
 _atom_site_fract_x
 _atom_site_fract_y
 _atom_site_fract_z
 _atom_site_thermal_displace_type
 _atom_site_B_iso_or_equiv
 _atom_site_type_symbol
Re1 1.0000000000 0.8655839711 0.8655839711 0.1344160289  Biso 1.0 Re
Re2 1.0000000000 0.6344160289 0.1344160289 0.6344160289  Biso 1.0 Re
Re3 1.0000000000 0.1344160289 0.3655839711 0.3655839711  Biso 1.0 Re
Re4 1.0000000000 0.3655839711 0.6344160289 0.8655839711  Biso 1.0 Re
Si5 1.0000000000 0.1552224240 0.1552224240 0.8447775760  Biso 1.0 Si
Si6 1.0000000000 0.3447775760 0.8447775760 0.3447775760  Biso 1.0 Si
Si7 1.0000000000 0.8447775760 0.6552224240 0.6552224240  Biso 1.0 Si
Si8 1.0000000000 0.6552224240 0.3447775760 0.1552224240  Biso 1.0 Si
