# AFLOW.org Repositories
# Re2Tb1   [HEX,HEX,hP12] (STD_PRIM doi:10
data_Re2Tb1
_pd_phase_name Re2Tb1
_cell_length_a  5.4495643334
_cell_length_b  5.4495643334
_cell_length_c  8.8623823850
_cell_angle_alpha  90.0000000000
_cell_angle_beta  90.0000000000
_cell_angle_gamma  120.0000000000
_symmetry_space_group_name_H-M  'P1'
_symmetry_Int_Tables_Number  1
loop_
_symmetry_equiv_pos_site_id
_symmetry_equiv_pos_as_xyz
  1  x,y,z
loop_
 _atom_site_label
 _atom_site_occupancy
 _atom_site_fract_x
 _atom_site_fract_y
 _atom_site_fract_z
 _atom_site_thermal_displace_type
 _atom_site_B_iso_or_equiv
 _atom_site_type_symbol
Re1 1.0000000000 0.0000000000 0.0000000000 0.0000000000  Biso 1.0 Re
Re2 1.0000000000 0.0000000000 0.0000000000 0.5000000000  Biso 1.0 Re
Re3 1.0000000000 0.8294278285 0.1705923762 0.2500000000  Biso 1.0 Re
Re4 1.0000000000 0.8294278285 0.6588354523 0.2500000000  Biso 1.0 Re
Re5 1.0000000000 0.3411633696 0.1705816848 0.2500000000  Biso 1.0 Re
Re6 1.0000000000 0.1705721715 0.8294076238 0.7500000000  Biso 1.0 Re
Re7 1.0000000000 0.1705721715 0.3411645477 0.7500000000  Biso 1.0 Re
Re8 1.0000000000 0.6588366304 0.8294183152 0.7500000000  Biso 1.0 Re
Tb9 1.0000000000 0.3333487794 0.6666743897 0.0619226374  Biso 1.0 Tb
Tb10 1.0000000000 0.6666512206 0.3333256103 0.5619226374  Biso 1.0 Tb
Tb11 1.0000000000 0.6666512206 0.3333256103 0.9380773626  Biso 1.0 Tb
Tb12 1.0000000000 0.3333487794 0.6666743897 0.4380773626  Biso 1.0 Tb
