# AFLOW.org Repositories
# Re2Y1   [HEX,HEX,hP12] (STD_PRIM doi:10.
data_Re2Y1
_pd_phase_name Re2Y1
_cell_length_a  5.4433809448
_cell_length_b  5.4433809448
_cell_length_c  8.8526909909
_cell_angle_alpha  90.0000000000
_cell_angle_beta  90.0000000000
_cell_angle_gamma  120.0000000000
_symmetry_space_group_name_H-M  'P1'
_symmetry_Int_Tables_Number  1
loop_
_symmetry_equiv_pos_site_id
_symmetry_equiv_pos_as_xyz
  1  x,y,z
loop_
 _atom_site_label
 _atom_site_occupancy
 _atom_site_fract_x
 _atom_site_fract_y
 _atom_site_fract_z
 _atom_site_thermal_displace_type
 _atom_site_B_iso_or_equiv
 _atom_site_type_symbol
Re1 1.0000000000 0.0000000000 0.0000000000 0.0000000000  Biso 1.0 Re
Re2 1.0000000000 0.0000000000 0.0000000000 0.5000000000  Biso 1.0 Re
Re3 1.0000000000 0.8293420495 0.1706815544 0.2500000000  Biso 1.0 Re
Re4 1.0000000000 0.8293420495 0.6586604951 0.2500000000  Biso 1.0 Re
Re5 1.0000000000 0.3413435074 0.1706717537 0.2500000000  Biso 1.0 Re
Re6 1.0000000000 0.1706579505 0.8293184456 0.7500000000  Biso 1.0 Re
Re7 1.0000000000 0.1706579505 0.3413395049 0.7500000000  Biso 1.0 Re
Re8 1.0000000000 0.6586564926 0.8293282463 0.7500000000  Biso 1.0 Re
Y9 1.0000000000 0.3333388676 0.6666694338 0.0617463093  Biso 1.0 Y
Y10 1.0000000000 0.6666611324 0.3333305662 0.5617463093  Biso 1.0 Y
Y11 1.0000000000 0.6666611324 0.3333305662 0.9382536907  Biso 1.0 Y
Y12 1.0000000000 0.3333388676 0.6666694338 0.4382536907  Biso 1.0 Y
