# AFLOW.org Repositories
# Re2Zr1   [HEX,HEX,hP12] (STD_PRIM doi:10
data_Re2Zr1
_pd_phase_name Re2Zr1
_cell_length_a  5.3183681505
_cell_length_b  5.3183681505
_cell_length_c  8.6940995087
_cell_angle_alpha  90.0000000000
_cell_angle_beta  90.0000000000
_cell_angle_gamma  120.0000000000
_symmetry_space_group_name_H-M  'P1'
_symmetry_Int_Tables_Number  1
loop_
_symmetry_equiv_pos_site_id
_symmetry_equiv_pos_as_xyz
  1  x,y,z
loop_
 _atom_site_label
 _atom_site_occupancy
 _atom_site_fract_x
 _atom_site_fract_y
 _atom_site_fract_z
 _atom_site_thermal_displace_type
 _atom_site_B_iso_or_equiv
 _atom_site_type_symbol
Re1 1.0000000000 0.0000000000 0.0000000000 0.0000000000  Biso 1.0 Re
Re2 1.0000000000 0.0000000000 0.0000000000 0.5000000000  Biso 1.0 Re
Re3 1.0000000000 0.8286560330 0.6573364591 0.2500000000  Biso 1.0 Re
Re4 1.0000000000 0.3426635409 0.1713439670 0.2500000000  Biso 1.0 Re
Re5 1.0000000000 0.8286685278 0.1713314722 0.2500000000  Biso 1.0 Re
Re6 1.0000000000 0.1713439670 0.3426635409 0.7500000000  Biso 1.0 Re
Re7 1.0000000000 0.6573364591 0.8286560330 0.7500000000  Biso 1.0 Re
Re8 1.0000000000 0.1713314722 0.8286685278 0.7500000000  Biso 1.0 Re
Zr9 1.0000000000 0.3333279808 0.6666720192 0.0603035419  Biso 1.0 Zr
Zr10 1.0000000000 0.6666720192 0.3333279808 0.5603035419  Biso 1.0 Zr
Zr11 1.0000000000 0.6666720192 0.3333279808 0.9396964581  Biso 1.0 Zr
Zr12 1.0000000000 0.3333279808 0.6666720192 0.4396964581  Biso 1.0 Zr
