# AFLOW.org Repositories
# Re3Ru1   [ORCI,ORCI,oI8] (STD_PRIM doi:1
data_Re3Ru1
_pd_phase_name Re3Ru1
_cell_length_a  5.2307210707
_cell_length_b  5.2307210707
_cell_length_c  5.2307210707
_cell_angle_alpha  149.4577077645
_cell_angle_beta  125.1357349836
_cell_angle_gamma  64.1020433792
_symmetry_space_group_name_H-M  'P1'
_symmetry_Int_Tables_Number  1
loop_
_symmetry_equiv_pos_site_id
_symmetry_equiv_pos_as_xyz
  1  x,y,z
loop_
 _atom_site_label
 _atom_site_occupancy
 _atom_site_fract_x
 _atom_site_fract_y
 _atom_site_fract_z
 _atom_site_thermal_displace_type
 _atom_site_B_iso_or_equiv
 _atom_site_type_symbol
Re1 1.0000000000 0.2534719821 0.2521903628 0.0012816194  Biso 1.0 Re
Re2 1.0000000000 0.7490912566 0.7478096372 0.0012816194  Biso 1.0 Re
Re3 1.0000000000 0.8283935334 0.5000000000 0.3283935334  Biso 1.0 Re
Ru4 1.0000000000 0.3356432279 0.0000000000 0.3356432279  Biso 1.0 Ru
