# AFLOW.org Repositories
# Re4S4Te4   [FCC,FCC,cF48] (STD_PRIM doi:
data_Re4S4Te4
_pd_phase_name Re4S4Te4
_cell_length_a  7.2117199338
_cell_length_b  7.2117199338
_cell_length_c  7.2117199338
_cell_angle_alpha  60.0000000000
_cell_angle_beta  60.0000000000
_cell_angle_gamma  60.0000000000
_symmetry_space_group_name_H-M  'P1'
_symmetry_Int_Tables_Number  1
loop_
_symmetry_equiv_pos_site_id
_symmetry_equiv_pos_as_xyz
  1  x,y,z
loop_
 _atom_site_label
 _atom_site_occupancy
 _atom_site_fract_x
 _atom_site_fract_y
 _atom_site_fract_z
 _atom_site_thermal_displace_type
 _atom_site_B_iso_or_equiv
 _atom_site_type_symbol
Re1 1.0000000000 0.2068421919 0.5977192694 0.5977192694  Biso 1.0 Re
Re2 1.0000000000 0.5977192694 0.5977192694 0.2068421919  Biso 1.0 Re
Re3 1.0000000000 0.5977192694 0.2068421919 0.5977192694  Biso 1.0 Re
Re4 1.0000000000 0.5977192694 0.5977192694 0.5977192694  Biso 1.0 Re
S5 1.0000000000 0.8859992510 0.3713335830 0.3713335830  Biso 1.0 S
S6 1.0000000000 0.3713335830 0.3713335830 0.8859992510  Biso 1.0 S
S7 1.0000000000 0.3713335830 0.8859992510 0.3713335830  Biso 1.0 S
S8 1.0000000000 0.3713335830 0.3713335830 0.3713335830  Biso 1.0 S
Te9 1.0000000000 0.3827296155 0.8724234615 0.8724234615  Biso 1.0 Te
Te10 1.0000000000 0.8724234615 0.8724234615 0.3827296155  Biso 1.0 Te
Te11 1.0000000000 0.8724234615 0.3827296155 0.8724234615  Biso 1.0 Te
Te12 1.0000000000 0.8724234615 0.8724234615 0.8724234615  Biso 1.0 Te
