# AFLOW.org Repositories
# Rh1Si1   [CUB,CUB,cP8] (STD_PRIM doi:10.
data_Rh1Si1
_pd_phase_name Rh1Si1
_cell_length_a  4.6943789275
_cell_length_b  4.6943789275
_cell_length_c  4.6943789275
_cell_angle_alpha  90.0000000000
_cell_angle_beta  90.0000000000
_cell_angle_gamma  90.0000000000
_symmetry_space_group_name_H-M  'P1'
_symmetry_Int_Tables_Number  1
loop_
_symmetry_equiv_pos_site_id
_symmetry_equiv_pos_as_xyz
  1  x,y,z
loop_
 _atom_site_label
 _atom_site_occupancy
 _atom_site_fract_x
 _atom_site_fract_y
 _atom_site_fract_z
 _atom_site_thermal_displace_type
 _atom_site_B_iso_or_equiv
 _atom_site_type_symbol
Rh1 1.0000000000 0.8476299536 0.8476299536 0.1523700464  Biso 1.0 Rh
Rh2 1.0000000000 0.6523700464 0.1523700464 0.6523700464  Biso 1.0 Rh
Rh3 1.0000000000 0.1523700464 0.3476299536 0.3476299536  Biso 1.0 Rh
Rh4 1.0000000000 0.3476299536 0.6523700464 0.8476299536  Biso 1.0 Rh
Si5 1.0000000000 0.1582921351 0.1582921351 0.8417078649  Biso 1.0 Si
Si6 1.0000000000 0.3417078649 0.8417078649 0.3417078649  Biso 1.0 Si
Si7 1.0000000000 0.8417078649 0.6582921351 0.6582921351  Biso 1.0 Si
Si8 1.0000000000 0.6582921351 0.3417078649 0.1582921351  Biso 1.0 Si
