# AFLOW.org Repositories
# Rh1Si1Y1   [ORC,ORC,oP12] (STD_PRIM doi:
data_Rh1Si1Y1
_pd_phase_name Rh1Si1Y1
_cell_length_a  4.2407148642
_cell_length_b  6.8977409181
_cell_length_c  7.4171278909
_cell_angle_alpha  90.0000000000
_cell_angle_beta  90.0000000000
_cell_angle_gamma  90.0000000000
_symmetry_space_group_name_H-M  'P1'
_symmetry_Int_Tables_Number  1
loop_
_symmetry_equiv_pos_site_id
_symmetry_equiv_pos_as_xyz
  1  x,y,z
loop_
 _atom_site_label
 _atom_site_occupancy
 _atom_site_fract_x
 _atom_site_fract_y
 _atom_site_fract_z
 _atom_site_thermal_displace_type
 _atom_site_B_iso_or_equiv
 _atom_site_type_symbol
Rh1 1.0000000000 0.2500000000 0.1534452839 0.4300586056  Biso 1.0 Rh
Rh2 1.0000000000 0.7500000000 0.3465547161 0.9300586056  Biso 1.0 Rh
Rh3 1.0000000000 0.7500000000 0.8465547161 0.5699413944  Biso 1.0 Rh
Rh4 1.0000000000 0.2500000000 0.6534452839 0.0699413944  Biso 1.0 Rh
Si5 1.0000000000 0.2500000000 0.7969279863 0.3987650343  Biso 1.0 Si
Si6 1.0000000000 0.7500000000 0.7030720137 0.8987650343  Biso 1.0 Si
Si7 1.0000000000 0.7500000000 0.2030720137 0.6012349657  Biso 1.0 Si
Si8 1.0000000000 0.2500000000 0.2969279863 0.1012349657  Biso 1.0 Si
Y9 1.0000000000 0.2500000000 0.0000000000 0.8099281915  Biso 1.0 Y
Y10 1.0000000000 0.7500000000 0.4999717565 0.3099281915  Biso 1.0 Y
Y11 1.0000000000 0.7500000000 0.0000000000 0.1900718085  Biso 1.0 Y
Y12 1.0000000000 0.2500000000 0.5000282435 0.6900718085  Biso 1.0 Y
