# AFLOW.org Repositories
# Rh1Sb3   [BCC,BCC,cI32] (STD_PRIM doi:10
data_Rh1Sb3
_pd_phase_name Rh1Sb3
_cell_length_a  8.1033541605
_cell_length_b  8.1033541605
_cell_length_c  8.1033541605
_cell_angle_alpha  109.4712206345
_cell_angle_beta  109.4712206345
_cell_angle_gamma  109.4712206345
_symmetry_space_group_name_H-M  'P1'
_symmetry_Int_Tables_Number  1
loop_
_symmetry_equiv_pos_site_id
_symmetry_equiv_pos_as_xyz
  1  x,y,z
loop_
 _atom_site_label
 _atom_site_occupancy
 _atom_site_fract_x
 _atom_site_fract_y
 _atom_site_fract_z
 _atom_site_thermal_displace_type
 _atom_site_B_iso_or_equiv
 _atom_site_type_symbol
Rh1 1.0000000000 0.0000000000 0.0000000000 0.5000000000  Biso 1.0 Rh
Rh2 1.0000000000 0.5000000000 0.5000000000 0.5000000000  Biso 1.0 Rh
Rh3 1.0000000000 0.5000000000 0.0000000000 0.0000000000  Biso 1.0 Rh
Rh4 1.0000000000 0.0000000000 0.5000000000 0.0000000000  Biso 1.0 Rh
Sb5 1.0000000000 0.8149067396 0.1549492759 0.6599574637  Biso 1.0 Sb
Sb6 1.0000000000 0.4949918122 0.1549492759 0.3400425363  Biso 1.0 Sb
Sb7 1.0000000000 0.5050081878 0.8450507241 0.6599574637  Biso 1.0 Sb
Sb8 1.0000000000 0.1850932604 0.8450507241 0.3400425363  Biso 1.0 Sb
Sb9 1.0000000000 0.3400425363 0.1850932604 0.8450507241  Biso 1.0 Sb
Sb10 1.0000000000 0.6599574637 0.5050081878 0.8450507241  Biso 1.0 Sb
Sb11 1.0000000000 0.3400425363 0.4949918122 0.1549492759  Biso 1.0 Sb
Sb12 1.0000000000 0.6599574637 0.8149067396 0.1549492759  Biso 1.0 Sb
Sb13 1.0000000000 0.8450507241 0.6599574637 0.5050081878  Biso 1.0 Sb
Sb14 1.0000000000 0.8450507241 0.3400425363 0.1850932604  Biso 1.0 Sb
Sb15 1.0000000000 0.1549492759 0.6599574637 0.8149067396  Biso 1.0 Sb
Sb16 1.0000000000 0.1549492759 0.3400425363 0.4949918122  Biso 1.0 Sb
