# AFLOW.org Repositories
# Rh1Si1Y1   [ORC,ORC,oP12] (STD_PRIM doi:
data_Rh1Si1Y1
_pd_phase_name Rh1Si1Y1
_cell_length_a  4.3052457979
_cell_length_b  6.9073481539
_cell_length_c  7.2707617729
_cell_angle_alpha  90.0000000000
_cell_angle_beta  90.0000000000
_cell_angle_gamma  90.0000000000
_symmetry_space_group_name_H-M  'P1'
_symmetry_Int_Tables_Number  1
loop_
_symmetry_equiv_pos_site_id
_symmetry_equiv_pos_as_xyz
  1  x,y,z
loop_
 _atom_site_label
 _atom_site_occupancy
 _atom_site_fract_x
 _atom_site_fract_y
 _atom_site_fract_z
 _atom_site_thermal_displace_type
 _atom_site_B_iso_or_equiv
 _atom_site_type_symbol
Rh1 1.0000000000 0.2500000000 0.3176428231 0.5860081913  Biso 1.0 Rh
Rh2 1.0000000000 0.7500000000 0.1823571769 0.0860081913  Biso 1.0 Rh
Rh3 1.0000000000 0.7500000000 0.6823571769 0.4139918087  Biso 1.0 Rh
Rh4 1.0000000000 0.2500000000 0.8176428231 0.9139918087  Biso 1.0 Rh
Si5 1.0000000000 0.2500000000 0.1886448791 0.9119381461  Biso 1.0 Si
Si6 1.0000000000 0.7500000000 0.3113551209 0.4119381461  Biso 1.0 Si
Si7 1.0000000000 0.7500000000 0.8113551209 0.0880618539  Biso 1.0 Si
Si8 1.0000000000 0.2500000000 0.6886448791 0.5880618539  Biso 1.0 Si
Y9 1.0000000000 0.2500000000 0.0112793240 0.3053962825  Biso 1.0 Y
Y10 1.0000000000 0.7500000000 0.4887206760 0.8053962825  Biso 1.0 Y
Y11 1.0000000000 0.7500000000 0.9887206760 0.6946037175  Biso 1.0 Y
Y12 1.0000000000 0.2500000000 0.5112793240 0.1946037175  Biso 1.0 Y
