# AFLOW.org Repositories
# Rh1Si1Ta1   [ORC,ORC,oP12] (STD_PRIM doi
data_Rh1Si1Ta1
_pd_phase_name Rh1Si1Ta1
_cell_length_a  3.7661770594
_cell_length_b  6.4239949380
_cell_length_c  7.3469846150
_cell_angle_alpha  90.0000000000
_cell_angle_beta  90.0000000000
_cell_angle_gamma  90.0000000000
_symmetry_space_group_name_H-M  'P1'
_symmetry_Int_Tables_Number  1
loop_
_symmetry_equiv_pos_site_id
_symmetry_equiv_pos_as_xyz
  1  x,y,z
loop_
 _atom_site_label
 _atom_site_occupancy
 _atom_site_fract_x
 _atom_site_fract_y
 _atom_site_fract_z
 _atom_site_thermal_displace_type
 _atom_site_B_iso_or_equiv
 _atom_site_type_symbol
Rh1 1.0000000000 0.2500000000 0.1442076478 0.4355084335  Biso 1.0 Rh
Rh2 1.0000000000 0.7500000000 0.3557923522 0.9355084335  Biso 1.0 Rh
Rh3 1.0000000000 0.7500000000 0.8557923522 0.5644915665  Biso 1.0 Rh
Rh4 1.0000000000 0.2500000000 0.6442076478 0.0644915665  Biso 1.0 Rh
Si5 1.0000000000 0.2500000000 0.7685412318 0.3762638196  Biso 1.0 Si
Si6 1.0000000000 0.7500000000 0.7314587682 0.8762638196  Biso 1.0 Si
Si7 1.0000000000 0.7500000000 0.2314587682 0.6237361804  Biso 1.0 Si
Si8 1.0000000000 0.2500000000 0.2685412318 0.1237361804  Biso 1.0 Si
Ta9 1.0000000000 0.2500000000 0.0249712863 0.8264821424  Biso 1.0 Ta
Ta10 1.0000000000 0.7500000000 0.4750287137 0.3264821424  Biso 1.0 Ta
Ta11 1.0000000000 0.7500000000 0.9750287137 0.1735178576  Biso 1.0 Ta
Ta12 1.0000000000 0.2500000000 0.5249712863 0.6735178576  Biso 1.0 Ta
