# AFLOW.org Repositories
# Rh1Sb1Se1   [CUB,CUB,cP12] (STD_PRIM doi
data_Rh1Sb1Se1
_pd_phase_name Rh1Sb1Se1
_cell_length_a  6.2541033264
_cell_length_b  6.2541033264
_cell_length_c  6.2541033264
_cell_angle_alpha  90.0000000000
_cell_angle_beta  90.0000000000
_cell_angle_gamma  90.0000000000
_symmetry_space_group_name_H-M  'P1'
_symmetry_Int_Tables_Number  1
loop_
_symmetry_equiv_pos_site_id
_symmetry_equiv_pos_as_xyz
  1  x,y,z
loop_
 _atom_site_label
 _atom_site_occupancy
 _atom_site_fract_x
 _atom_site_fract_y
 _atom_site_fract_z
 _atom_site_thermal_displace_type
 _atom_site_B_iso_or_equiv
 _atom_site_type_symbol
Rh1 1.0000000000 0.0048810869 0.0048810869 0.9951189131  Biso 1.0 Rh
Rh2 1.0000000000 0.4951189131 0.9951189131 0.4951189131  Biso 1.0 Rh
Rh3 1.0000000000 0.9951189131 0.5048810869 0.5048810869  Biso 1.0 Rh
Rh4 1.0000000000 0.5048810869 0.4951189131 0.0048810869  Biso 1.0 Rh
Sb5 1.0000000000 0.3763322926 0.3763322926 0.6236677074  Biso 1.0 Sb
Sb6 1.0000000000 0.1236677074 0.6236677074 0.1236677074  Biso 1.0 Sb
Sb7 1.0000000000 0.6236677074 0.8763322926 0.8763322926  Biso 1.0 Sb
Sb8 1.0000000000 0.8763322926 0.1236677074 0.3763322926  Biso 1.0 Sb
Se9 1.0000000000 0.6211821667 0.6211821667 0.3788178333  Biso 1.0 Se
Se10 1.0000000000 0.8788178333 0.3788178333 0.8788178333  Biso 1.0 Se
Se11 1.0000000000 0.3788178333 0.1211821667 0.1211821667  Biso 1.0 Se
Se12 1.0000000000 0.1211821667 0.8788178333 0.6211821667  Biso 1.0 Se
