# AFLOW.org Repositories
# Rh1Si1Ti1   [ORC,ORC,oP12] (STD_PRIM doi
data_Rh1Si1Ti1
_pd_phase_name Rh1Si1Ti1
_cell_length_a  3.8264548853
_cell_length_b  6.3460927096
_cell_length_c  7.3231566951
_cell_angle_alpha  90.0000000000
_cell_angle_beta  90.0000000000
_cell_angle_gamma  90.0000000000
_symmetry_space_group_name_H-M  'P1'
_symmetry_Int_Tables_Number  1
loop_
_symmetry_equiv_pos_site_id
_symmetry_equiv_pos_as_xyz
  1  x,y,z
loop_
 _atom_site_label
 _atom_site_occupancy
 _atom_site_fract_x
 _atom_site_fract_y
 _atom_site_fract_z
 _atom_site_thermal_displace_type
 _atom_site_B_iso_or_equiv
 _atom_site_type_symbol
Rh1 1.0000000000 0.2500000000 0.1531255339 0.4343254163  Biso 1.0 Rh
Rh2 1.0000000000 0.7500000000 0.3468744661 0.9343254163  Biso 1.0 Rh
Rh3 1.0000000000 0.7500000000 0.8468744661 0.5656745837  Biso 1.0 Rh
Rh4 1.0000000000 0.2500000000 0.6531255339 0.0656745837  Biso 1.0 Rh
Si5 1.0000000000 0.2500000000 0.7743807748 0.3779598337  Biso 1.0 Si
Si6 1.0000000000 0.7500000000 0.7256192252 0.8779598337  Biso 1.0 Si
Si7 1.0000000000 0.7500000000 0.2256192252 0.6220401663  Biso 1.0 Si
Si8 1.0000000000 0.2500000000 0.2743807748 0.1220401663  Biso 1.0 Si
Ti9 1.0000000000 0.2500000000 0.0229240627 0.8187799879  Biso 1.0 Ti
Ti10 1.0000000000 0.7500000000 0.4770759373 0.3187799879  Biso 1.0 Ti
Ti11 1.0000000000 0.7500000000 0.9770759373 0.1812200121  Biso 1.0 Ti
Ti12 1.0000000000 0.2500000000 0.5229240627 0.6812200121  Biso 1.0 Ti
