# AFLOW.org Repositories
# Rh1Sb1Tb1   [ORC,ORC,oP12] (STD_PRIM doi
data_Rh1Sb1Tb1
_pd_phase_name Rh1Sb1Tb1
_cell_length_a  4.5699851061
_cell_length_b  7.1817387963
_cell_length_c  7.8403876730
_cell_angle_alpha  90.0000000000
_cell_angle_beta  90.0000000000
_cell_angle_gamma  90.0000000000
_symmetry_space_group_name_H-M  'P1'
_symmetry_Int_Tables_Number  1
loop_
_symmetry_equiv_pos_site_id
_symmetry_equiv_pos_as_xyz
  1  x,y,z
loop_
 _atom_site_label
 _atom_site_occupancy
 _atom_site_fract_x
 _atom_site_fract_y
 _atom_site_fract_z
 _atom_site_thermal_displace_type
 _atom_site_B_iso_or_equiv
 _atom_site_type_symbol
Rh1 1.0000000000 0.2500000000 0.3052545591 0.5817829145  Biso 1.0 Rh
Rh2 1.0000000000 0.7500000000 0.1947454409 0.0817829145  Biso 1.0 Rh
Rh3 1.0000000000 0.7500000000 0.6947454409 0.4182170855  Biso 1.0 Rh
Rh4 1.0000000000 0.2500000000 0.8052545591 0.9182170855  Biso 1.0 Rh
Sb5 1.0000000000 0.2500000000 0.1952599251 0.9091621487  Biso 1.0 Sb
Sb6 1.0000000000 0.7500000000 0.3047400749 0.4091621487  Biso 1.0 Sb
Sb7 1.0000000000 0.7500000000 0.8047400749 0.0908378513  Biso 1.0 Sb
Sb8 1.0000000000 0.2500000000 0.6952599251 0.5908378513  Biso 1.0 Sb
Tb9 1.0000000000 0.2500000000 0.0085657183 0.2981342372  Biso 1.0 Tb
Tb10 1.0000000000 0.7500000000 0.4914342817 0.7981342372  Biso 1.0 Tb
Tb11 1.0000000000 0.7500000000 0.9914342817 0.7018657628  Biso 1.0 Tb
Tb12 1.0000000000 0.2500000000 0.5085657183 0.2018657628  Biso 1.0 Tb
