# AFLOW.org Repositories
# Rh2Si3Y3   [ORCC,ORCC,oS32] (STD_PRIM do
data_Rh2Si3Y3
_pd_phase_name Rh2Si3Y3
_cell_length_a  5.7193073349
_cell_length_b  5.7193073349
_cell_length_c  13.7725655661
_cell_angle_alpha  90.0000000000
_cell_angle_beta  90.0000000000
_cell_angle_gamma  137.1766700706
_symmetry_space_group_name_H-M  'P1'
_symmetry_Int_Tables_Number  1
loop_
_symmetry_equiv_pos_site_id
_symmetry_equiv_pos_as_xyz
  1  x,y,z
loop_
 _atom_site_label
 _atom_site_occupancy
 _atom_site_fract_x
 _atom_site_fract_y
 _atom_site_fract_z
 _atom_site_thermal_displace_type
 _atom_site_B_iso_or_equiv
 _atom_site_type_symbol
Rh1 1.0000000000 0.7854061921 0.2145938079 0.4186712539  Biso 1.0 Rh
Rh2 1.0000000000 0.2145938079 0.7854061921 0.9186712539  Biso 1.0 Rh
Rh3 1.0000000000 0.7854061921 0.2145938079 0.0813287461  Biso 1.0 Rh
Rh4 1.0000000000 0.2145938079 0.7854061921 0.5813287461  Biso 1.0 Rh
Si5 1.0000000000 0.6111892398 0.3888107602 0.9605969887  Biso 1.0 Si
Si6 1.0000000000 0.3888107602 0.6111892398 0.4605969887  Biso 1.0 Si
Si7 1.0000000000 0.6111892398 0.3888107602 0.5394030113  Biso 1.0 Si
Si8 1.0000000000 0.3888107602 0.6111892398 0.0394030113  Biso 1.0 Si
Si9 1.0000000000 0.3359162466 0.6640837534 0.7500000000  Biso 1.0 Si
Si10 1.0000000000 0.6640837534 0.3359162466 0.2500000000  Biso 1.0 Si
Y11 1.0000000000 0.9203285220 0.0796714780 0.8860640810  Biso 1.0 Y
Y12 1.0000000000 0.0796714780 0.9203285220 0.3860640810  Biso 1.0 Y
Y13 1.0000000000 0.9203285220 0.0796714780 0.6139359190  Biso 1.0 Y
Y14 1.0000000000 0.0796714780 0.9203285220 0.1139359190  Biso 1.0 Y
Y15 1.0000000000 0.6428202151 0.3571797849 0.7500000000  Biso 1.0 Y
Y16 1.0000000000 0.3571797849 0.6428202151 0.2500000000  Biso 1.0 Y
