# AFLOW.org Repositories
# Rh2Sn1   [ORC,ORC,oP12] (STD_PRIM doi:10
data_Rh2Sn1
_pd_phase_name Rh2Sn1
_cell_length_a  4.3025478300
_cell_length_b  5.6177274759
_cell_length_c  8.1102807787
_cell_angle_alpha  90.0000000000
_cell_angle_beta  90.0000000000
_cell_angle_gamma  90.0000000000
_symmetry_space_group_name_H-M  'P1'
_symmetry_Int_Tables_Number  1
loop_
_symmetry_equiv_pos_site_id
_symmetry_equiv_pos_as_xyz
  1  x,y,z
loop_
 _atom_site_label
 _atom_site_occupancy
 _atom_site_fract_x
 _atom_site_fract_y
 _atom_site_fract_z
 _atom_site_thermal_displace_type
 _atom_site_B_iso_or_equiv
 _atom_site_type_symbol
Rh1 1.0000000000 0.2500000000 0.0447749792 0.7746400346  Biso 1.0 Rh
Rh2 1.0000000000 0.7500000000 0.4552250208 0.2746400346  Biso 1.0 Rh
Rh3 1.0000000000 0.7500000000 0.9552250208 0.2253599654  Biso 1.0 Rh
Rh4 1.0000000000 0.2500000000 0.5447749792 0.7253599654  Biso 1.0 Rh
Rh5 1.0000000000 0.2500000000 0.1731368799 0.4302849759  Biso 1.0 Rh
Rh6 1.0000000000 0.7500000000 0.3268631201 0.9302849759  Biso 1.0 Rh
Rh7 1.0000000000 0.7500000000 0.8268631201 0.5697150241  Biso 1.0 Rh
Rh8 1.0000000000 0.2500000000 0.6731368799 0.0697150241  Biso 1.0 Rh
Sn9 1.0000000000 0.2500000000 0.6955750172 0.3986813554  Biso 1.0 Sn
Sn10 1.0000000000 0.7500000000 0.8044249828 0.8986813554  Biso 1.0 Sn
Sn11 1.0000000000 0.7500000000 0.3044249828 0.6013186446  Biso 1.0 Sn
Sn12 1.0000000000 0.2500000000 0.1955750172 0.1013186446  Biso 1.0 Sn
