# AFLOW.org Repositories
# Rh3S4   [MCLC,MCLC5,mS42] (STD_PRIM doi:
data_Rh3S4
_pd_phase_name Rh3S4
_cell_length_a  7.5469885298
_cell_length_b  7.5469885298
_cell_length_c  6.3276468586
_cell_angle_alpha  77.5537737808
_cell_angle_beta  77.5537737808
_cell_angle_gamma  91.9694416532
_symmetry_space_group_name_H-M  'P1'
_symmetry_Int_Tables_Number  1
loop_
_symmetry_equiv_pos_site_id
_symmetry_equiv_pos_as_xyz
  1  x,y,z
loop_
 _atom_site_label
 _atom_site_occupancy
 _atom_site_fract_x
 _atom_site_fract_y
 _atom_site_fract_z
 _atom_site_thermal_displace_type
 _atom_site_B_iso_or_equiv
 _atom_site_type_symbol
Rh1 1.0000000000 0.5076603196 0.2173642729 0.5504971471  Biso 1.0 Rh
Rh2 1.0000000000 0.7826357271 0.4923396804 0.4495028529  Biso 1.0 Rh
Rh3 1.0000000000 0.4923396804 0.7826357271 0.4495028529  Biso 1.0 Rh
Rh4 1.0000000000 0.2173642729 0.5076603196 0.5504971471  Biso 1.0 Rh
Rh5 1.0000000000 0.3506732756 0.3506732756 0.9459518374  Biso 1.0 Rh
Rh6 1.0000000000 0.6493267244 0.6493267244 0.0540481626  Biso 1.0 Rh
Rh7 1.0000000000 0.0000000000 0.0000000000 0.5000000000  Biso 1.0 Rh
Rh8 1.0000000000 0.1591278458 0.8408721542 0.0000000000  Biso 1.0 Rh
Rh9 1.0000000000 0.8408721542 0.1591278458 0.0000000000  Biso 1.0 Rh
S10 1.0000000000 0.4167400814 0.4167400814 0.2716791074  Biso 1.0 S
S11 1.0000000000 0.5832599186 0.5832599186 0.7283208926  Biso 1.0 S
S12 1.0000000000 0.2842695202 0.9675762342 0.6143366870  Biso 1.0 S
S13 1.0000000000 0.0324237658 0.7157304798 0.3856633130  Biso 1.0 S
S14 1.0000000000 0.7157304798 0.0324237658 0.3856633130  Biso 1.0 S
S15 1.0000000000 0.9675762342 0.2842695202 0.6143366870  Biso 1.0 S
S16 1.0000000000 0.1181230200 0.1181230200 0.1118734578  Biso 1.0 S
S17 1.0000000000 0.8818769800 0.8818769800 0.8881265422  Biso 1.0 S
S18 1.0000000000 0.5591581134 0.1381133553 0.9005171700  Biso 1.0 S
S19 1.0000000000 0.8618866447 0.4408418866 0.0994828300  Biso 1.0 S
S20 1.0000000000 0.4408418866 0.8618866447 0.0994828300  Biso 1.0 S
S21 1.0000000000 0.1381133553 0.5591581134 0.9005171700  Biso 1.0 S
