# AFLOW.org Repositories
# Rh3Si2Y1   [HEX,HEX,hP6] (STD_PRIM doi:1
data_Rh3Si2Y1
_pd_phase_name Rh3Si2Y1
_cell_length_a  5.5255370621
_cell_length_b  5.5255370621
_cell_length_c  3.6319599680
_cell_angle_alpha  90.0000000000
_cell_angle_beta  90.0000000000
_cell_angle_gamma  120.0000000000
_symmetry_space_group_name_H-M  'P1'
_symmetry_Int_Tables_Number  1
loop_
_symmetry_equiv_pos_site_id
_symmetry_equiv_pos_as_xyz
  1  x,y,z
loop_
 _atom_site_label
 _atom_site_occupancy
 _atom_site_fract_x
 _atom_site_fract_y
 _atom_site_fract_z
 _atom_site_thermal_displace_type
 _atom_site_B_iso_or_equiv
 _atom_site_type_symbol
Rh1 1.0000000000 0.0000000000 0.5000000000 0.5000000000  Biso 1.0 Rh
Rh2 1.0000000000 0.5000000000 0.5000000000 0.5000000000  Biso 1.0 Rh
Rh3 1.0000000000 0.5000000000 0.0000000000 0.5000000000  Biso 1.0 Rh
Si4 1.0000000000 0.6666700280 0.3333400561 0.0000000000  Biso 1.0 Si
Si5 1.0000000000 0.3333299720 0.6666599439 0.0000000000  Biso 1.0 Si
Y6 1.0000000000 0.0000000000 0.0000000000 0.0000000000  Biso 1.0 Y
