# AFLOW.org Repositories
# Rh3Te2   [ORCC,ORCC,oS20] (STD_PRIM doi:
data_Rh3Te2
_pd_phase_name Rh3Te2
_cell_length_a  6.5683219262
_cell_length_b  6.5683219262
_cell_length_c  7.7211054978
_cell_angle_alpha  90.0000000000
_cell_angle_beta  90.0000000000
_cell_angle_gamma  146.7191376500
_symmetry_space_group_name_H-M  'P1'
_symmetry_Int_Tables_Number  1
loop_
_symmetry_equiv_pos_site_id
_symmetry_equiv_pos_as_xyz
  1  x,y,z
loop_
 _atom_site_label
 _atom_site_occupancy
 _atom_site_fract_x
 _atom_site_fract_y
 _atom_site_fract_z
 _atom_site_thermal_displace_type
 _atom_site_B_iso_or_equiv
 _atom_site_type_symbol
Rh1 1.0000000000 0.5345620189 0.4654379811 0.7500000000  Biso 1.0 Rh
Rh2 1.0000000000 0.4654379811 0.5345620189 0.2500000000  Biso 1.0 Rh
Rh3 1.0000000000 0.6591538900 0.3408461100 0.0620595268  Biso 1.0 Rh
Rh4 1.0000000000 0.3408461100 0.6591538900 0.5620595268  Biso 1.0 Rh
Rh5 1.0000000000 0.6591538900 0.3408461100 0.4379404732  Biso 1.0 Rh
Rh6 1.0000000000 0.3408461100 0.6591538900 0.9379404732  Biso 1.0 Rh
Te7 1.0000000000 0.0000000000 0.0000000000 0.0000000000  Biso 1.0 Te
Te8 1.0000000000 0.0000000000 0.0000000000 0.5000000000  Biso 1.0 Te
Te9 1.0000000000 0.7465699822 0.2534300178 0.7500000000  Biso 1.0 Te
Te10 1.0000000000 0.2534300178 0.7465699822 0.2500000000  Biso 1.0 Te
