# AFLOW.org Repositories
# Rh4Si5   [MCL,MCL,mP18] (STD_PRIM doi:10
data_Rh4Si5
_pd_phase_name Rh4Si5
_cell_length_a  3.5244420238
_cell_length_b  5.9674841676
_cell_length_c  12.3819397422
_cell_angle_alpha  79.8148540893
_cell_angle_beta  90.0000000000
_cell_angle_gamma  90.0000000000
_symmetry_space_group_name_H-M  'P1'
_symmetry_Int_Tables_Number  1
loop_
_symmetry_equiv_pos_site_id
_symmetry_equiv_pos_as_xyz
  1  x,y,z
loop_
 _atom_site_label
 _atom_site_occupancy
 _atom_site_fract_x
 _atom_site_fract_y
 _atom_site_fract_z
 _atom_site_thermal_displace_type
 _atom_site_B_iso_or_equiv
 _atom_site_type_symbol
Rh1 1.0000000000 0.7500000000 0.7934752459 0.0501330415  Biso 1.0 Rh
Rh2 1.0000000000 0.2500000000 0.2065247541 0.9498669585  Biso 1.0 Rh
Rh3 1.0000000000 0.7500000000 0.8919874850 0.2734597244  Biso 1.0 Rh
Rh4 1.0000000000 0.2500000000 0.1080125150 0.7265402756  Biso 1.0 Rh
Rh5 1.0000000000 0.7500000000 0.7001655027 0.5000065311  Biso 1.0 Rh
Rh6 1.0000000000 0.2500000000 0.2998344973 0.4999934689  Biso 1.0 Rh
Rh7 1.0000000000 0.7500000000 0.7158808708 0.7299996680  Biso 1.0 Rh
Rh8 1.0000000000 0.2500000000 0.2841191292 0.2700003320  Biso 1.0 Rh
Si9 1.0000000000 0.7500000000 0.3622281935 0.6350676404  Biso 1.0 Si
Si10 1.0000000000 0.2500000000 0.6377718065 0.3649323596  Biso 1.0 Si
Si11 1.0000000000 0.7500000000 0.1065524619 0.4222628756  Biso 1.0 Si
Si12 1.0000000000 0.2500000000 0.8934475381 0.5777371244  Biso 1.0 Si
Si13 1.0000000000 0.7500000000 0.5338326921 0.2237439343  Biso 1.0 Si
Si14 1.0000000000 0.2500000000 0.4661673079 0.7762560657  Biso 1.0 Si
Si15 1.0000000000 0.2500000000 0.0201474788 0.1398572744  Biso 1.0 Si
Si16 1.0000000000 0.7500000000 0.9798525212 0.8601427256  Biso 1.0 Si
Si17 1.0000000000 0.7500000000 0.5139277807 0.9228211580  Biso 1.0 Si
Si18 1.0000000000 0.2500000000 0.4860722193 0.0771788420  Biso 1.0 Si
