# AFLOW.org Repositories
# Rh4Sn13Th3   [CUB,CUB,cP40] (STD_PRIM do
data_Rh4Sn13Th3
_pd_phase_name Rh4Sn13Th3
_cell_length_a  9.9381121976
_cell_length_b  9.9381121976
_cell_length_c  9.9381121976
_cell_angle_alpha  90.0000000000
_cell_angle_beta  90.0000000000
_cell_angle_gamma  90.0000000000
_symmetry_space_group_name_H-M  'P1'
_symmetry_Int_Tables_Number  1
loop_
_symmetry_equiv_pos_site_id
_symmetry_equiv_pos_as_xyz
  1  x,y,z
loop_
 _atom_site_label
 _atom_site_occupancy
 _atom_site_fract_x
 _atom_site_fract_y
 _atom_site_fract_z
 _atom_site_thermal_displace_type
 _atom_site_B_iso_or_equiv
 _atom_site_type_symbol
Rh1 1.0000000000 0.7500000000 0.7500000000 0.2500000000  Biso 1.0 Rh
Rh2 1.0000000000 0.2500000000 0.2500000000 0.2500000000  Biso 1.0 Rh
Rh3 1.0000000000 0.2500000000 0.7500000000 0.7500000000  Biso 1.0 Rh
Rh4 1.0000000000 0.7500000000 0.2500000000 0.7500000000  Biso 1.0 Rh
Rh5 1.0000000000 0.2500000000 0.2500000000 0.7500000000  Biso 1.0 Rh
Rh6 1.0000000000 0.7500000000 0.7500000000 0.7500000000  Biso 1.0 Rh
Rh7 1.0000000000 0.7500000000 0.2500000000 0.2500000000  Biso 1.0 Rh
Rh8 1.0000000000 0.2500000000 0.7500000000 0.2500000000  Biso 1.0 Rh
Sn9 1.0000000000 0.0000000000 0.0000000000 0.0000000000  Biso 1.0 Sn
Sn10 1.0000000000 0.5000000000 0.5000000000 0.5000000000  Biso 1.0 Sn
Sn11 1.0000000000 0.0000000000 0.6950600781 0.1532968229  Biso 1.0 Sn
Sn12 1.0000000000 0.0000000000 0.3049399219 0.1532968229  Biso 1.0 Sn
Sn13 1.0000000000 0.0000000000 0.6950600781 0.8467031771  Biso 1.0 Sn
Sn14 1.0000000000 0.0000000000 0.3049399219 0.8467031771  Biso 1.0 Sn
Sn15 1.0000000000 0.8467031771 0.0000000000 0.3049399219  Biso 1.0 Sn
Sn16 1.0000000000 0.8467031771 0.0000000000 0.6950600781  Biso 1.0 Sn
Sn17 1.0000000000 0.1532968229 0.0000000000 0.3049399219  Biso 1.0 Sn
Sn18 1.0000000000 0.1532968229 0.0000000000 0.6950600781  Biso 1.0 Sn
Sn19 1.0000000000 0.6950600781 0.8467031771 0.0000000000  Biso 1.0 Sn
Sn20 1.0000000000 0.3049399219 0.8467031771 0.0000000000  Biso 1.0 Sn
Sn21 1.0000000000 0.6950600781 0.1532968229 0.0000000000  Biso 1.0 Sn
Sn22 1.0000000000 0.3049399219 0.1532968229 0.0000000000  Biso 1.0 Sn
Sn23 1.0000000000 0.1950600781 0.5000000000 0.3467031771  Biso 1.0 Sn
Sn24 1.0000000000 0.8049399219 0.5000000000 0.3467031771  Biso 1.0 Sn
Sn25 1.0000000000 0.1950600781 0.5000000000 0.6532968229  Biso 1.0 Sn
Sn26 1.0000000000 0.8049399219 0.5000000000 0.6532968229  Biso 1.0 Sn
Sn27 1.0000000000 0.5000000000 0.3467031771 0.1950600781  Biso 1.0 Sn
Sn28 1.0000000000 0.5000000000 0.3467031771 0.8049399219  Biso 1.0 Sn
Sn29 1.0000000000 0.5000000000 0.6532968229 0.1950600781  Biso 1.0 Sn
Sn30 1.0000000000 0.5000000000 0.6532968229 0.8049399219  Biso 1.0 Sn
Sn31 1.0000000000 0.3467031771 0.1950600781 0.5000000000  Biso 1.0 Sn
Sn32 1.0000000000 0.3467031771 0.8049399219 0.5000000000  Biso 1.0 Sn
Sn33 1.0000000000 0.6532968229 0.1950600781 0.5000000000  Biso 1.0 Sn
Sn34 1.0000000000 0.6532968229 0.8049399219 0.5000000000  Biso 1.0 Sn
Th35 1.0000000000 0.7500000000 0.5000000000 0.0000000000  Biso 1.0 Th
Th36 1.0000000000 0.2500000000 0.5000000000 0.0000000000  Biso 1.0 Th
Th37 1.0000000000 0.0000000000 0.7500000000 0.5000000000  Biso 1.0 Th
Th38 1.0000000000 0.0000000000 0.2500000000 0.5000000000  Biso 1.0 Th
Th39 1.0000000000 0.5000000000 0.0000000000 0.2500000000  Biso 1.0 Th
Th40 1.0000000000 0.5000000000 0.0000000000 0.7500000000  Biso 1.0 Th
