# AFLOW.org Repositories
# Ru1Si3Th1   [BCT,BCT2,tI10] (STD_PRIM do
data_Ru1Si3Th1
_pd_phase_name Ru1Si3Th1
_cell_length_a  5.8194527115
_cell_length_b  5.8194527115
_cell_length_c  5.8194527115
_cell_angle_alpha  136.7460673021
_cell_angle_beta  136.7460673021
_cell_angle_gamma  62.8289882798
_symmetry_space_group_name_H-M  'P1'
_symmetry_Int_Tables_Number  1
loop_
_symmetry_equiv_pos_site_id
_symmetry_equiv_pos_as_xyz
  1  x,y,z
loop_
 _atom_site_label
 _atom_site_occupancy
 _atom_site_fract_x
 _atom_site_fract_y
 _atom_site_fract_z
 _atom_site_thermal_displace_type
 _atom_site_B_iso_or_equiv
 _atom_site_type_symbol
Ru1 1.0000000000 0.6568145862 0.6568145862 0.0000000000  Biso 1.0 Ru
Si2 1.0000000000 0.4168266918 0.4168266918 0.0000000000  Biso 1.0 Si
Si3 1.0000000000 0.2607964041 0.7607964041 0.5000000000  Biso 1.0 Si
Si4 1.0000000000 0.7607964041 0.2607964041 0.5000000000  Biso 1.0 Si
Th5 1.0000000000 0.9987659139 0.9987659139 0.0000000000  Biso 1.0 Th
