# AFLOW.org Repositories
# Ru1Sb1   [ORC,ORC,oP8] (STD_PRIM doi:10.
data_Ru1Sb1
_pd_phase_name Ru1Sb1
_cell_length_a  3.6130644544
_cell_length_b  6.1227264373
_cell_length_c  6.7513408475
_cell_angle_alpha  90.0000000000
_cell_angle_beta  90.0000000000
_cell_angle_gamma  90.0000000000
_symmetry_space_group_name_H-M  'P1'
_symmetry_Int_Tables_Number  1
loop_
_symmetry_equiv_pos_site_id
_symmetry_equiv_pos_as_xyz
  1  x,y,z
loop_
 _atom_site_label
 _atom_site_occupancy
 _atom_site_fract_x
 _atom_site_fract_y
 _atom_site_fract_z
 _atom_site_thermal_displace_type
 _atom_site_B_iso_or_equiv
 _atom_site_type_symbol
Ru1 1.0000000000 0.2500000000 0.0030827132 0.7959087765  Biso 1.0 Ru
Ru2 1.0000000000 0.7500000000 0.4969172868 0.2959087765  Biso 1.0 Ru
Ru3 1.0000000000 0.7500000000 0.9969172868 0.2040912235  Biso 1.0 Ru
Ru4 1.0000000000 0.2500000000 0.5030827132 0.7040912235  Biso 1.0 Ru
Sb5 1.0000000000 0.2500000000 0.1988368931 0.4284917589  Biso 1.0 Sb
Sb6 1.0000000000 0.7500000000 0.3011631069 0.9284917589  Biso 1.0 Sb
Sb7 1.0000000000 0.7500000000 0.8011631069 0.5715082411  Biso 1.0 Sb
Sb8 1.0000000000 0.2500000000 0.6988368931 0.0715082411  Biso 1.0 Sb
