# AFLOW.org Repositories
# Ru1Te2   [ORC,ORC,oP6] (STD_PRIM doi:10.
data_Ru1Te2
_pd_phase_name Ru1Te2
_cell_length_a  4.0664735878
_cell_length_b  5.3534042091
_cell_length_c  6.4760073810
_cell_angle_alpha  90.0000000000
_cell_angle_beta  90.0000000000
_cell_angle_gamma  90.0000000000
_symmetry_space_group_name_H-M  'P1'
_symmetry_Int_Tables_Number  1
loop_
_symmetry_equiv_pos_site_id
_symmetry_equiv_pos_as_xyz
  1  x,y,z
loop_
 _atom_site_label
 _atom_site_occupancy
 _atom_site_fract_x
 _atom_site_fract_y
 _atom_site_fract_z
 _atom_site_thermal_displace_type
 _atom_site_B_iso_or_equiv
 _atom_site_type_symbol
Ru1 1.0000000000 0.0000000000 0.0000000000 0.0000000000  Biso 1.0 Ru
Ru2 1.0000000000 0.5000000000 0.5000000000 0.5000000000  Biso 1.0 Ru
Te3 1.0000000000 0.0000000000 0.2179856708 0.6323166788  Biso 1.0 Te
Te4 1.0000000000 0.0000000000 0.7820143292 0.3676833212  Biso 1.0 Te
Te5 1.0000000000 0.5000000000 0.2820143292 0.1323166788  Biso 1.0 Te
Te6 1.0000000000 0.5000000000 0.7179856708 0.8676833212  Biso 1.0 Te
