# AFLOW.org Repositories
# Ru1Y3   [ORC,ORC,oP16] (STD_PRIM doi:10.
data_Ru1Y3
_pd_phase_name Ru1Y3
_cell_length_a  6.3452768070
_cell_length_b  7.3153355502
_cell_length_c  9.2183115176
_cell_angle_alpha  90.0000000000
_cell_angle_beta  90.0000000000
_cell_angle_gamma  90.0000000000
_symmetry_space_group_name_H-M  'P1'
_symmetry_Int_Tables_Number  1
loop_
_symmetry_equiv_pos_site_id
_symmetry_equiv_pos_as_xyz
  1  x,y,z
loop_
 _atom_site_label
 _atom_site_occupancy
 _atom_site_fract_x
 _atom_site_fract_y
 _atom_site_fract_z
 _atom_site_thermal_displace_type
 _atom_site_B_iso_or_equiv
 _atom_site_type_symbol
Ru1 1.0000000000 0.5381751172 0.3829385207 0.7500000000  Biso 1.0 Ru
Ru2 1.0000000000 0.0381751172 0.1170614793 0.2500000000  Biso 1.0 Ru
Ru3 1.0000000000 0.4618248828 0.6170614793 0.2500000000  Biso 1.0 Ru
Ru4 1.0000000000 0.9618248828 0.8829385207 0.7500000000  Biso 1.0 Ru
Y5 1.0000000000 0.8303690583 0.1759403365 0.9345381246  Biso 1.0 Y
Y6 1.0000000000 0.3303690583 0.3240596635 0.0654618754  Biso 1.0 Y
Y7 1.0000000000 0.1696309417 0.8240596635 0.4345381246  Biso 1.0 Y
Y8 1.0000000000 0.6696309417 0.6759403365 0.5654618754  Biso 1.0 Y
Y9 1.0000000000 0.1696309417 0.8240596635 0.0654618754  Biso 1.0 Y
Y10 1.0000000000 0.6696309417 0.6759403365 0.9345381246  Biso 1.0 Y
Y11 1.0000000000 0.8303690583 0.1759403365 0.5654618754  Biso 1.0 Y
Y12 1.0000000000 0.3303690583 0.3240596635 0.4345381246  Biso 1.0 Y
Y13 1.0000000000 0.3636705921 0.0415471238 0.7500000000  Biso 1.0 Y
Y14 1.0000000000 0.8636705921 0.4584528762 0.2500000000  Biso 1.0 Y
Y15 1.0000000000 0.6363294079 0.9584528762 0.2500000000  Biso 1.0 Y
Y16 1.0000000000 0.1363294079 0.5415471238 0.7500000000  Biso 1.0 Y
