# AFLOW.org Repositories
# Ru2Tb5   [MCLC,MCLC1,mS28] (STD_PRIM doi
data_Ru2Tb5
_pd_phase_name Ru2Tb5
_cell_length_a  8.5453920630
_cell_length_b  8.5453920630
_cell_length_c  7.2556743696
_cell_angle_alpha  83.0554200649
_cell_angle_beta  83.0554200649
_cell_angle_gamma  43.7517260307
_symmetry_space_group_name_H-M  'P1'
_symmetry_Int_Tables_Number  1
loop_
_symmetry_equiv_pos_site_id
_symmetry_equiv_pos_as_xyz
  1  x,y,z
loop_
 _atom_site_label
 _atom_site_occupancy
 _atom_site_fract_x
 _atom_site_fract_y
 _atom_site_fract_z
 _atom_site_thermal_displace_type
 _atom_site_B_iso_or_equiv
 _atom_site_type_symbol
Ru1 1.0000000000 0.3975605584 0.8276591067 0.9233869843  Biso 1.0 Ru
Ru2 1.0000000000 0.1723408933 0.6024394416 0.5766130157  Biso 1.0 Ru
Ru3 1.0000000000 0.6024394416 0.1723408933 0.0766130157  Biso 1.0 Ru
Ru4 1.0000000000 0.8276591067 0.3975605584 0.4233869843  Biso 1.0 Ru
Tb5 1.0000000000 0.2041161283 0.9831156902 0.5856532945  Biso 1.0 Tb
Tb6 1.0000000000 0.0168843098 0.7958838717 0.9143467055  Biso 1.0 Tb
Tb7 1.0000000000 0.7958838717 0.0168843098 0.4143467055  Biso 1.0 Tb
Tb8 1.0000000000 0.9831156902 0.2041161283 0.0856532945  Biso 1.0 Tb
Tb9 1.0000000000 0.7943464083 0.6387996920 0.6874054786  Biso 1.0 Tb
Tb10 1.0000000000 0.3612003080 0.2056535917 0.8125945214  Biso 1.0 Tb
Tb11 1.0000000000 0.2056535917 0.3612003080 0.3125945214  Biso 1.0 Tb
Tb12 1.0000000000 0.6387996920 0.7943464083 0.1874054786  Biso 1.0 Tb
Tb13 1.0000000000 0.5779215510 0.4220784490 0.7500000000  Biso 1.0 Tb
Tb14 1.0000000000 0.4220784490 0.5779215510 0.2500000000  Biso 1.0 Tb
