# AFLOW.org Repositories
# Ru3Si2Y1   [HEX,HEX,hP12] (STD_PRIM doi:
data_Ru3Si2Y1
_pd_phase_name Ru3Si2Y1
_cell_length_a  3.6127630610
_cell_length_b  5.5713736248
_cell_length_c  5.5718975545
_cell_angle_alpha  60.0046688803
_cell_angle_beta  90.0000000000
_cell_angle_gamma  90.0000000000
_symmetry_space_group_name_H-M  'P1'
_symmetry_Int_Tables_Number  1
loop_
_symmetry_equiv_pos_site_id
_symmetry_equiv_pos_as_xyz
  1  x,y,z
loop_
 _atom_site_label
 _atom_site_occupancy
 _atom_site_fract_x
 _atom_site_fract_y
 _atom_site_fract_z
 _atom_site_thermal_displace_type
 _atom_site_B_iso_or_equiv
 _atom_site_type_symbol
Ru1 1.0000000000 0.5000000000 0.0000000000 0.5006447391  Biso 1.0 Ru
Ru2 1.0000000000 0.5000000000 0.5002591005 0.5000632690  Biso 1.0 Ru
Ru3 1.0000000000 0.5000000000 0.4996782860 0.0000000000  Biso 1.0 Ru
Si4 1.0000000000 0.0000000000 0.6666747097 0.6666578959  Biso 1.0 Si
Si5 1.0000000000 0.0000000000 0.3333252903 0.3339868952  Biso 1.0 Si
Y6 1.0000000000 0.0000000000 0.0000000000 0.0000000000  Biso 1.0 Y
