# AFLOW.org Repositories
# Ru5Si3   [ORC,ORC,oP16] (STD_PRIM doi:10
data_Ru5Si3
_pd_phase_name Ru5Si3
_cell_length_a  4.0182115948
_cell_length_b  5.2910860593
_cell_length_c  9.8293080685
_cell_angle_alpha  90.0000000000
_cell_angle_beta  90.0000000000
_cell_angle_gamma  90.0000000000
_symmetry_space_group_name_H-M  'P1'
_symmetry_Int_Tables_Number  1
loop_
_symmetry_equiv_pos_site_id
_symmetry_equiv_pos_as_xyz
  1  x,y,z
loop_
 _atom_site_label
 _atom_site_occupancy
 _atom_site_fract_x
 _atom_site_fract_y
 _atom_site_fract_z
 _atom_site_thermal_displace_type
 _atom_site_B_iso_or_equiv
 _atom_site_type_symbol
Ru1 1.0000000000 0.0000000000 0.0000000000 0.5000000000  Biso 1.0 Ru
Ru2 1.0000000000 0.0000000000 0.5000000000 0.0000000000  Biso 1.0 Ru
Ru3 1.0000000000 0.0000000000 0.1597502555 0.7737258519  Biso 1.0 Ru
Ru4 1.0000000000 0.0000000000 0.8402497445 0.2262741481  Biso 1.0 Ru
Ru5 1.0000000000 0.0000000000 0.3402497445 0.2737258519  Biso 1.0 Ru
Ru6 1.0000000000 0.0000000000 0.6597502555 0.7262741481  Biso 1.0 Ru
Ru7 1.0000000000 0.5000000000 0.3366551345 0.6087414784  Biso 1.0 Ru
Ru8 1.0000000000 0.5000000000 0.6633448655 0.3912585216  Biso 1.0 Ru
Ru9 1.0000000000 0.5000000000 0.1633448655 0.1087414784  Biso 1.0 Ru
Ru10 1.0000000000 0.5000000000 0.8366551345 0.8912585216  Biso 1.0 Ru
Si11 1.0000000000 0.0000000000 0.0000000000 0.0000000000  Biso 1.0 Si
Si12 1.0000000000 0.0000000000 0.5000000000 0.5000000000  Biso 1.0 Si
Si13 1.0000000000 0.5000000000 0.3801286615 0.8599063345  Biso 1.0 Si
Si14 1.0000000000 0.5000000000 0.6198713385 0.1400936655  Biso 1.0 Si
Si15 1.0000000000 0.5000000000 0.1198713385 0.3599063345  Biso 1.0 Si
Si16 1.0000000000 0.5000000000 0.8801286615 0.6400936655  Biso 1.0 Si
