# AFLOW.org Repositories
# S1Se1U1   [ORC,ORC,oP12] (STD_PRIM doi:1
data_S1Se1U1
_pd_phase_name S1Se1U1
_cell_length_a  4.2382418578
_cell_length_b  7.4419593561
_cell_length_c  8.6832396551
_cell_angle_alpha  90.0000000000
_cell_angle_beta  90.0000000000
_cell_angle_gamma  90.0000000000
_symmetry_space_group_name_H-M  'P1'
_symmetry_Int_Tables_Number  1
loop_
_symmetry_equiv_pos_site_id
_symmetry_equiv_pos_as_xyz
  1  x,y,z
loop_
 _atom_site_label
 _atom_site_occupancy
 _atom_site_fract_x
 _atom_site_fract_y
 _atom_site_fract_z
 _atom_site_thermal_displace_type
 _atom_site_B_iso_or_equiv
 _atom_site_type_symbol
S1 1.0000000000 0.2500000000 0.8574940185 0.9321823198  Biso 1.0 S
S2 1.0000000000 0.7500000000 0.6425059815 0.4321823198  Biso 1.0 S
S3 1.0000000000 0.7500000000 0.1425059815 0.0678176802  Biso 1.0 S
S4 1.0000000000 0.2500000000 0.3574940185 0.5678176802  Biso 1.0 S
Se5 1.0000000000 0.2500000000 0.4678936560 0.1630598972  Biso 1.0 Se
Se6 1.0000000000 0.7500000000 0.0321063440 0.6630598972  Biso 1.0 Se
Se7 1.0000000000 0.7500000000 0.5321063440 0.8369401028  Biso 1.0 Se
Se8 1.0000000000 0.2500000000 0.9678936560 0.3369401028  Biso 1.0 Se
U9 1.0000000000 0.2500000000 0.2311251753 0.8734543563  Biso 1.0 U
U10 1.0000000000 0.7500000000 0.2688748247 0.3734543563  Biso 1.0 U
U11 1.0000000000 0.7500000000 0.7688748247 0.1265456437  Biso 1.0 U
U12 1.0000000000 0.2500000000 0.7311251753 0.6265456437  Biso 1.0 U
