# AFLOW.org Repositories
# S1Zn1   [HEX,HEX,hP16] (STD_PRIM doi:10.
data_S1Zn1
_pd_phase_name S1Zn1
_cell_length_a  3.7968440549
_cell_length_b  3.7968440549
_cell_length_c  24.8512094826
_cell_angle_alpha  90.0000000000
_cell_angle_beta  90.0000000000
_cell_angle_gamma  120.0000000000
_symmetry_space_group_name_H-M  'P1'
_symmetry_Int_Tables_Number  1
loop_
_symmetry_equiv_pos_site_id
_symmetry_equiv_pos_as_xyz
  1  x,y,z
loop_
 _atom_site_label
 _atom_site_occupancy
 _atom_site_fract_x
 _atom_site_fract_y
 _atom_site_fract_z
 _atom_site_thermal_displace_type
 _atom_site_B_iso_or_equiv
 _atom_site_type_symbol
S1 1.0000000000 0.0000000000 0.0000000000 0.0937648171  Biso 1.0 S
S2 1.0000000000 0.6666819866 0.3333639732 0.2187243129  Biso 1.0 S
S3 1.0000000000 0.3333182937 0.6666365874 0.3438167659  Biso 1.0 S
S4 1.0000000000 0.6666909346 0.3333818692 0.4687649692  Biso 1.0 S
S5 1.0000000000 0.0000000000 0.0000000000 0.5937258368  Biso 1.0 S
S6 1.0000000000 0.3333081869 0.6666163738 0.7187753269  Biso 1.0 S
S7 1.0000000000 0.0000000000 0.0000000000 0.8437688469  Biso 1.0 S
S8 1.0000000000 0.3333082463 0.6666164926 0.9688123126  Biso 1.0 S
Zn9 1.0000000000 0.0000000000 0.0000000000 0.0000000000  Biso 1.0 Zn
Zn10 1.0000000000 0.6666923808 0.3333847617 0.1250414728  Biso 1.0 Zn
Zn11 1.0000000000 0.3333166198 0.6666332395 0.2500330598  Biso 1.0 Zn
Zn12 1.0000000000 0.6666833734 0.3333667468 0.3750190097  Biso 1.0 Zn
Zn13 1.0000000000 0.0000000000 0.0000000000 0.5000261949  Biso 1.0 Zn
Zn14 1.0000000000 0.3333074936 0.6666149872 0.6250417948  Biso 1.0 Zn
Zn15 1.0000000000 0.0000000000 0.0000000000 0.7500291114  Biso 1.0 Zn
Zn16 1.0000000000 0.3333075749 0.6666151497 0.8750220489  Biso 1.0 Zn
