# AFLOW.org Repositories
# S2Si1   [BCT,BCT2,tI12] (STD_PRIM doi:10
data_S2Si1
_pd_phase_name S2Si1
_cell_length_a  5.9083052237
_cell_length_b  5.9083052237
_cell_length_c  5.9083052237
_cell_angle_alpha  123.3833927825
_cell_angle_beta  123.3833927825
_cell_angle_gamma  84.2333339323
_symmetry_space_group_name_H-M  'P1'
_symmetry_Int_Tables_Number  1
loop_
_symmetry_equiv_pos_site_id
_symmetry_equiv_pos_as_xyz
  1  x,y,z
loop_
 _atom_site_label
 _atom_site_occupancy
 _atom_site_fract_x
 _atom_site_fract_y
 _atom_site_fract_z
 _atom_site_thermal_displace_type
 _atom_site_B_iso_or_equiv
 _atom_site_type_symbol
S1 1.0000000000 0.9080969154 0.3750000000 0.0330969154  Biso 1.0 S
S2 1.0000000000 0.3419030846 0.8750000000 0.9669030846  Biso 1.0 S
S3 1.0000000000 0.6250000000 0.6580969154 0.5330969154  Biso 1.0 S
S4 1.0000000000 0.1250000000 0.0919030846 0.4669030846  Biso 1.0 S
Si5 1.0000000000 0.0000000000 0.0000000000 0.0000000000  Biso 1.0 Si
Si6 1.0000000000 0.2500000000 0.7500000000 0.5000000000  Biso 1.0 Si
