# AFLOW.org Repositories
# S2Sr1   [BCT,BCT2,tI12] (STD_PRIM doi:10
data_S2Sr1
_pd_phase_name S2Sr1
_cell_length_a  5.8179382496
_cell_length_b  5.8179382496
_cell_length_c  5.8179382496
_cell_angle_alpha  116.2869242273
_cell_angle_beta  116.2869242273
_cell_angle_gamma  96.5613384692
_symmetry_space_group_name_H-M  'P1'
_symmetry_Int_Tables_Number  1
loop_
_symmetry_equiv_pos_site_id
_symmetry_equiv_pos_as_xyz
  1  x,y,z
loop_
 _atom_site_label
 _atom_site_occupancy
 _atom_site_fract_x
 _atom_site_fract_y
 _atom_site_fract_z
 _atom_site_thermal_displace_type
 _atom_site_B_iso_or_equiv
 _atom_site_type_symbol
S1 1.0000000000 0.1221127841 0.6221127841 0.7442255683  Biso 1.0 S
S2 1.0000000000 0.8778872159 0.3778872159 0.2557744317  Biso 1.0 S
S3 1.0000000000 0.3778872159 0.1221127841 0.5000000000  Biso 1.0 S
S4 1.0000000000 0.6221127841 0.8778872159 0.5000000000  Biso 1.0 S
Sr5 1.0000000000 0.7500000000 0.7500000000 0.0000000000  Biso 1.0 Sr
Sr6 1.0000000000 0.2500000000 0.2500000000 0.0000000000  Biso 1.0 Sr
