# AFLOW.org Repositories
# S2Ta3   [ORCC,ORCC,oS40] (STD_PRIM doi:1
data_S2Ta3
_pd_phase_name S2Ta3
_cell_length_a  9.1916704129
_cell_length_b  9.1916704129
_cell_length_c  7.5718269707
_cell_angle_alpha  90.0000000000
_cell_angle_beta  90.0000000000
_cell_angle_gamma  143.9072265291
_symmetry_space_group_name_H-M  'P1'
_symmetry_Int_Tables_Number  1
loop_
_symmetry_equiv_pos_site_id
_symmetry_equiv_pos_as_xyz
  1  x,y,z
loop_
 _atom_site_label
 _atom_site_occupancy
 _atom_site_fract_x
 _atom_site_fract_y
 _atom_site_fract_z
 _atom_site_thermal_displace_type
 _atom_site_B_iso_or_equiv
 _atom_site_type_symbol
S1 1.0000000000 0.0913552353 0.1718662699 0.8280952596  Biso 1.0 S
S2 1.0000000000 0.1718662699 0.0913552353 0.1719047404  Biso 1.0 S
S3 1.0000000000 0.6718662699 0.5913552353 0.8280952596  Biso 1.0 S
S4 1.0000000000 0.5913552353 0.6718662699 0.1719047404  Biso 1.0 S
S5 1.0000000000 0.5131000766 0.7456494416 0.5841175748  Biso 1.0 S
S6 1.0000000000 0.7456494416 0.5131000766 0.4158824252  Biso 1.0 S
S7 1.0000000000 0.2456494416 0.0131000766 0.5841175748  Biso 1.0 S
S8 1.0000000000 0.0131000766 0.2456494416 0.4158824252  Biso 1.0 S
Ta9 1.0000000000 0.8332255074 0.1661480679 0.7187463601  Biso 1.0 Ta
Ta10 1.0000000000 0.1661480679 0.8332255074 0.2812536399  Biso 1.0 Ta
Ta11 1.0000000000 0.6661480679 0.3332255074 0.7187463601  Biso 1.0 Ta
Ta12 1.0000000000 0.3332255074 0.6661480679 0.2812536399  Biso 1.0 Ta
Ta13 1.0000000000 0.8982875972 0.1136637822 0.1045655516  Biso 1.0 Ta
Ta14 1.0000000000 0.1136637822 0.8982875972 0.8954344484  Biso 1.0 Ta
Ta15 1.0000000000 0.6136637822 0.3982875972 0.1045655516  Biso 1.0 Ta
Ta16 1.0000000000 0.3982875972 0.6136637822 0.8954344484  Biso 1.0 Ta
Ta17 1.0000000000 0.2710579023 0.7710579023 0.6555030128  Biso 1.0 Ta
Ta18 1.0000000000 0.7710579023 0.2710579023 0.3444969872  Biso 1.0 Ta
Ta19 1.0000000000 0.0050461196 0.5050461196 0.9946491834  Biso 1.0 Ta
Ta20 1.0000000000 0.5050461196 0.0050461196 0.0053508166  Biso 1.0 Ta
