# AFLOW.org Repositories
# S2Ta1   [HEX,HEX,hP6] (STD_PRIM doi:10.1
data_S2Ta1
_pd_phase_name S2Ta1
_cell_length_a  3.3634747076
_cell_length_b  3.3634747076
_cell_length_c  14.2235370771
_cell_angle_alpha  90.0000000000
_cell_angle_beta  90.0000000000
_cell_angle_gamma  120.0000000000
_symmetry_space_group_name_H-M  'P1'
_symmetry_Int_Tables_Number  1
loop_
_symmetry_equiv_pos_site_id
_symmetry_equiv_pos_as_xyz
  1  x,y,z
loop_
 _atom_site_label
 _atom_site_occupancy
 _atom_site_fract_x
 _atom_site_fract_y
 _atom_site_fract_z
 _atom_site_thermal_displace_type
 _atom_site_B_iso_or_equiv
 _atom_site_type_symbol
S1 1.0000000000 0.3333429929 0.6666714964 0.1395388774  Biso 1.0 S
S2 1.0000000000 0.6666570071 0.3333285036 0.6395388774  Biso 1.0 S
S3 1.0000000000 0.6666570071 0.3333285036 0.8604611226  Biso 1.0 S
S4 1.0000000000 0.3333429929 0.6666714964 0.3604611226  Biso 1.0 S
Ta5 1.0000000000 0.0000000000 0.0000000000 0.2500000000  Biso 1.0 Ta
Ta6 1.0000000000 0.0000000000 0.0000000000 0.7500000000  Biso 1.0 Ta
