# AFLOW.org Repositories
# S2Th1   [ORC,ORC,oP12] (STD_PRIM doi:10.
data_S2Th1
_pd_phase_name S2Th1
_cell_length_a  4.3828876091
_cell_length_b  7.4431324088
_cell_length_c  8.8747784511
_cell_angle_alpha  90.0000000000
_cell_angle_beta  90.0000000000
_cell_angle_gamma  90.0000000000
_symmetry_space_group_name_H-M  'P1'
_symmetry_Int_Tables_Number  1
loop_
_symmetry_equiv_pos_site_id
_symmetry_equiv_pos_as_xyz
  1  x,y,z
loop_
 _atom_site_label
 _atom_site_occupancy
 _atom_site_fract_x
 _atom_site_fract_y
 _atom_site_fract_z
 _atom_site_thermal_displace_type
 _atom_site_B_iso_or_equiv
 _atom_site_type_symbol
S1 1.0000000000 0.2500000000 0.8603640144 0.9289751181  Biso 1.0 S
S2 1.0000000000 0.7500000000 0.6396359856 0.4289751181  Biso 1.0 S
S3 1.0000000000 0.7500000000 0.1396359856 0.0710248819  Biso 1.0 S
S4 1.0000000000 0.2500000000 0.3603640144 0.5710248819  Biso 1.0 S
S5 1.0000000000 0.2500000000 0.9712356066 0.3357991195  Biso 1.0 S
S6 1.0000000000 0.7500000000 0.5287643934 0.8357991195  Biso 1.0 S
S7 1.0000000000 0.7500000000 0.0287643934 0.6642008805  Biso 1.0 S
S8 1.0000000000 0.2500000000 0.4712356066 0.1642008805  Biso 1.0 S
Th9 1.0000000000 0.2500000000 0.2489355774 0.8806365617  Biso 1.0 Th
Th10 1.0000000000 0.7500000000 0.2510644226 0.3806365617  Biso 1.0 Th
Th11 1.0000000000 0.7500000000 0.7510644226 0.1193634383  Biso 1.0 Th
Th12 1.0000000000 0.2500000000 0.7489355774 0.6193634383  Biso 1.0 Th
