# AFLOW.org Repositories
# S3Sn2   [ORC,ORC,oP20] (STD_PRIM doi:10.
data_S3Sn2
_pd_phase_name S3Sn2
_cell_length_a  3.8599999918
_cell_length_b  9.2557771871
_cell_length_c  14.5312519399
_cell_angle_alpha  90.0000000000
_cell_angle_beta  90.0000000000
_cell_angle_gamma  90.0000000000
_symmetry_space_group_name_H-M  'P1'
_symmetry_Int_Tables_Number  1
loop_
_symmetry_equiv_pos_site_id
_symmetry_equiv_pos_as_xyz
  1  x,y,z
loop_
 _atom_site_label
 _atom_site_occupancy
 _atom_site_fract_x
 _atom_site_fract_y
 _atom_site_fract_z
 _atom_site_thermal_displace_type
 _atom_site_B_iso_or_equiv
 _atom_site_type_symbol
S1 1.0000000000 0.7500000000 0.9827209925 0.8942796023  Biso 1.0 S
S2 1.0000000000 0.2500000000 0.5172790075 0.3942796023  Biso 1.0 S
S3 1.0000000000 0.2500000000 0.0172790075 0.1057203977  Biso 1.0 S
S4 1.0000000000 0.7500000000 0.4827209925 0.6057203977  Biso 1.0 S
S5 1.0000000000 0.7500000000 0.3371757898 0.0049101644  Biso 1.0 S
S6 1.0000000000 0.2500000000 0.1628242102 0.5049101644  Biso 1.0 S
S7 1.0000000000 0.2500000000 0.6628242102 0.9950898356  Biso 1.0 S
S8 1.0000000000 0.7500000000 0.8371757898 0.4950898356  Biso 1.0 S
S9 1.0000000000 0.2500000000 0.2845943118 0.7919162780  Biso 1.0 S
S10 1.0000000000 0.7500000000 0.2154056882 0.2919162780  Biso 1.0 S
S11 1.0000000000 0.7500000000 0.7154056882 0.2080837220  Biso 1.0 S
S12 1.0000000000 0.2500000000 0.7845943118 0.7080837220  Biso 1.0 S
Sn13 1.0000000000 0.2500000000 0.1625806201 0.9506014271  Biso 1.0 Sn
Sn14 1.0000000000 0.7500000000 0.3374193799 0.4506014271  Biso 1.0 Sn
Sn15 1.0000000000 0.7500000000 0.8374193799 0.0493985729  Biso 1.0 Sn
Sn16 1.0000000000 0.2500000000 0.6625806201 0.5493985729  Biso 1.0 Sn
Sn17 1.0000000000 0.7500000000 0.4757626338 0.8354965351  Biso 1.0 Sn
Sn18 1.0000000000 0.2500000000 0.0242373662 0.3354965351  Biso 1.0 Sn
Sn19 1.0000000000 0.2500000000 0.5242373662 0.1645034649  Biso 1.0 Sn
Sn20 1.0000000000 0.7500000000 0.9757626338 0.6645034649  Biso 1.0 Sn
