# AFLOW.org Repositories
# S3Y2   [ORC,ORC,oP20] (STD_PRIM doi:10.1
data_S3Y2
_pd_phase_name S3Y2
_cell_length_a  3.8810285552
_cell_length_b  10.5069163592
_cell_length_c  10.6785911938
_cell_angle_alpha  90.0000000000
_cell_angle_beta  90.0000000000
_cell_angle_gamma  90.0000000000
_symmetry_space_group_name_H-M  'P1'
_symmetry_Int_Tables_Number  1
loop_
_symmetry_equiv_pos_site_id
_symmetry_equiv_pos_as_xyz
  1  x,y,z
loop_
 _atom_site_label
 _atom_site_occupancy
 _atom_site_fract_x
 _atom_site_fract_y
 _atom_site_fract_z
 _atom_site_thermal_displace_type
 _atom_site_B_iso_or_equiv
 _atom_site_type_symbol
S1 1.0000000000 0.7500000000 0.1265072159 0.0458681333  Biso 1.0 S
S2 1.0000000000 0.2500000000 0.6265072159 0.4541318667  Biso 1.0 S
S3 1.0000000000 0.2500000000 0.8734927841 0.9541318667  Biso 1.0 S
S4 1.0000000000 0.7500000000 0.3734927841 0.5458681333  Biso 1.0 S
S5 1.0000000000 0.2500000000 0.5549386916 0.1192418641  Biso 1.0 S
S6 1.0000000000 0.7500000000 0.0549386916 0.3807581359  Biso 1.0 S
S7 1.0000000000 0.7500000000 0.4450613084 0.8807581359  Biso 1.0 S
S8 1.0000000000 0.2500000000 0.9450613084 0.6192418641  Biso 1.0 S
S9 1.0000000000 0.7500000000 0.8040457784 0.2277441171  Biso 1.0 S
S10 1.0000000000 0.2500000000 0.3040457784 0.2722558829  Biso 1.0 S
S11 1.0000000000 0.2500000000 0.1959542216 0.7722558829  Biso 1.0 S
S12 1.0000000000 0.7500000000 0.6959542216 0.7277441171  Biso 1.0 S
Y13 1.0000000000 0.7500000000 0.6871948437 0.9902319405  Biso 1.0 Y
Y14 1.0000000000 0.2500000000 0.1871948437 0.5097680595  Biso 1.0 Y
Y15 1.0000000000 0.2500000000 0.3128051563 0.0097680595  Biso 1.0 Y
Y16 1.0000000000 0.7500000000 0.8128051563 0.4902319405  Biso 1.0 Y
Y17 1.0000000000 0.2500000000 0.9957648080 0.1921480371  Biso 1.0 Y
Y18 1.0000000000 0.7500000000 0.4957648080 0.3078519629  Biso 1.0 Y
Y19 1.0000000000 0.7500000000 0.0042351920 0.8078519629  Biso 1.0 Y
Y20 1.0000000000 0.2500000000 0.5042351920 0.6921480371  Biso 1.0 Y
