# AFLOW.org Repositories
# S4Y2Zn1   [FCC,FCC,cF56] (STD_PRIM doi:1
data_S4Y2Zn1
_pd_phase_name S4Y2Zn1
_cell_length_a  7.7738980075
_cell_length_b  7.7738980075
_cell_length_c  7.7738980075
_cell_angle_alpha  60.0000000000
_cell_angle_beta  60.0000000000
_cell_angle_gamma  60.0000000000
_symmetry_space_group_name_H-M  'P1'
_symmetry_Int_Tables_Number  1
loop_
_symmetry_equiv_pos_site_id
_symmetry_equiv_pos_as_xyz
  1  x,y,z
loop_
 _atom_site_label
 _atom_site_occupancy
 _atom_site_fract_x
 _atom_site_fract_y
 _atom_site_fract_z
 _atom_site_thermal_displace_type
 _atom_site_B_iso_or_equiv
 _atom_site_type_symbol
S1 1.0000000000 0.7474728290 0.7508423903 0.7508423903  Biso 1.0 S
S2 1.0000000000 0.2508423903 0.7508423903 0.7508423903  Biso 1.0 S
S3 1.0000000000 0.2508423903 0.7508423903 0.2474728290  Biso 1.0 S
S4 1.0000000000 0.2508423903 0.2474728290 0.7508423903  Biso 1.0 S
S5 1.0000000000 0.7491576097 0.2491576097 0.2491576097  Biso 1.0 S
S6 1.0000000000 0.2525271710 0.2491576097 0.2491576097  Biso 1.0 S
S7 1.0000000000 0.7491576097 0.2491576097 0.7525271710  Biso 1.0 S
S8 1.0000000000 0.7491576097 0.7525271710 0.2491576097  Biso 1.0 S
Y9 1.0000000000 0.0000000000 0.0000000000 0.0000000000  Biso 1.0 Y
Y10 1.0000000000 0.5000000000 0.0000000000 0.0000000000  Biso 1.0 Y
Y11 1.0000000000 0.5000000000 0.0000000000 0.5000000000  Biso 1.0 Y
Y12 1.0000000000 0.5000000000 0.5000000000 0.0000000000  Biso 1.0 Y
Zn13 1.0000000000 0.1250000000 0.6250000000 0.6250000000  Biso 1.0 Zn
Zn14 1.0000000000 0.8750000000 0.3750000000 0.3750000000  Biso 1.0 Zn
