# AFLOW.org Repositories
# Sb1Y1Zr1   [BCT,BCT2,tI12] (STD_PRIM doi
data_Sb1Y1Zr1
_pd_phase_name Sb1Y1Zr1
_cell_length_a  8.8595598091
_cell_length_b  8.8595598091
_cell_length_c  8.8595598091
_cell_angle_alpha  152.0312056248
_cell_angle_beta  152.0312056248
_cell_angle_gamma  39.9677336021
_symmetry_space_group_name_H-M  'P1'
_symmetry_Int_Tables_Number  1
loop_
_symmetry_equiv_pos_site_id
_symmetry_equiv_pos_as_xyz
  1  x,y,z
loop_
 _atom_site_label
 _atom_site_occupancy
 _atom_site_fract_x
 _atom_site_fract_y
 _atom_site_fract_z
 _atom_site_thermal_displace_type
 _atom_site_B_iso_or_equiv
 _atom_site_type_symbol
Sb1 1.0000000000 0.1331262342 0.1331262342 0.0000000000  Biso 1.0 Sb
Sb2 1.0000000000 0.8668737658 0.8668737658 0.0000000000  Biso 1.0 Sb
Y3 1.0000000000 0.3234580593 0.3234580593 0.0000000000  Biso 1.0 Y
Y4 1.0000000000 0.6765419407 0.6765419407 0.0000000000  Biso 1.0 Y
Zr5 1.0000000000 0.0000000000 0.5000000000 0.5000000000  Biso 1.0 Zr
Zr6 1.0000000000 0.5000000000 0.0000000000 0.5000000000  Biso 1.0 Zr
