# AFLOW.org Repositories
# Sb1Zr2   [BCT,BCT2,tI12] (STD_PRIM doi:1
data_Sb1Zr2
_pd_phase_name Sb1Zr2
_cell_length_a  8.5085509680
_cell_length_b  8.5085509680
_cell_length_c  8.5085509680
_cell_angle_alpha  151.8307383625
_cell_angle_beta  151.8307383625
_cell_angle_gamma  40.2605323350
_symmetry_space_group_name_H-M  'P1'
_symmetry_Int_Tables_Number  1
loop_
_symmetry_equiv_pos_site_id
_symmetry_equiv_pos_as_xyz
  1  x,y,z
loop_
 _atom_site_label
 _atom_site_occupancy
 _atom_site_fract_x
 _atom_site_fract_y
 _atom_site_fract_z
 _atom_site_thermal_displace_type
 _atom_site_B_iso_or_equiv
 _atom_site_type_symbol
Sb1 1.0000000000 0.8614480314 0.8614480314 0.0000000000  Biso 1.0 Sb
Sb2 1.0000000000 0.1385519686 0.1385519686 0.0000000000  Biso 1.0 Sb
Zr3 1.0000000000 0.5000000000 0.0000000000 0.5000000000  Biso 1.0 Zr
Zr4 1.0000000000 0.0000000000 0.5000000000 0.5000000000  Biso 1.0 Zr
Zr5 1.0000000000 0.6770321453 0.6770321453 0.0000000000  Biso 1.0 Zr
Zr6 1.0000000000 0.3229678547 0.3229678547 0.0000000000  Biso 1.0 Zr
