# AFLOW.org Repositories
# Sb1Zr1   [ORCC,ORCC,oS24] (STD_PRIM doi:
data_Sb1Zr1
_pd_phase_name Sb1Zr1
_cell_length_a  5.6047007340
_cell_length_b  5.6047007340
_cell_length_c  14.2044390269
_cell_angle_alpha  90.0000000000
_cell_angle_beta  90.0000000000
_cell_angle_gamma  140.1490594594
_symmetry_space_group_name_H-M  'P1'
_symmetry_Int_Tables_Number  1
loop_
_symmetry_equiv_pos_site_id
_symmetry_equiv_pos_as_xyz
  1  x,y,z
loop_
 _atom_site_label
 _atom_site_occupancy
 _atom_site_fract_x
 _atom_site_fract_y
 _atom_site_fract_z
 _atom_site_thermal_displace_type
 _atom_site_B_iso_or_equiv
 _atom_site_type_symbol
Sb1 1.0000000000 0.6692571222 0.3307428778 0.7500000000  Biso 1.0 Sb
Sb2 1.0000000000 0.3307428778 0.6692571222 0.2500000000  Biso 1.0 Sb
Sb3 1.0000000000 0.6425861482 0.3574138518 0.4510697366  Biso 1.0 Sb
Sb4 1.0000000000 0.3574138518 0.6425861482 0.9510697366  Biso 1.0 Sb
Sb5 1.0000000000 0.6425861482 0.3574138518 0.0489302634  Biso 1.0 Sb
Sb6 1.0000000000 0.3574138518 0.6425861482 0.5489302634  Biso 1.0 Sb
Zr7 1.0000000000 0.3808239934 0.6191760066 0.7500000000  Biso 1.0 Zr
Zr8 1.0000000000 0.6191760066 0.3808239934 0.2500000000  Biso 1.0 Zr
Zr9 1.0000000000 0.0711824926 0.9288175074 0.8916573924  Biso 1.0 Zr
Zr10 1.0000000000 0.9288175074 0.0711824926 0.3916573924  Biso 1.0 Zr
Zr11 1.0000000000 0.0711824926 0.9288175074 0.6083426076  Biso 1.0 Zr
Zr12 1.0000000000 0.9288175074 0.0711824926 0.1083426076  Biso 1.0 Zr
