# AFLOW.org Repositories
# Sb1Zr1   [CUB,CUB,cP8] (STD_PRIM doi:10.
data_Sb1Zr1
_pd_phase_name Sb1Zr1
_cell_length_a  5.6913237758
_cell_length_b  5.6913237758
_cell_length_c  5.6913237758
_cell_angle_alpha  90.0000000000
_cell_angle_beta  90.0000000000
_cell_angle_gamma  90.0000000000
_symmetry_space_group_name_H-M  'P1'
_symmetry_Int_Tables_Number  1
loop_
_symmetry_equiv_pos_site_id
_symmetry_equiv_pos_as_xyz
  1  x,y,z
loop_
 _atom_site_label
 _atom_site_occupancy
 _atom_site_fract_x
 _atom_site_fract_y
 _atom_site_fract_z
 _atom_site_thermal_displace_type
 _atom_site_B_iso_or_equiv
 _atom_site_type_symbol
Sb1 1.0000000000 0.1565708997 0.1565708997 0.8434291003  Biso 1.0 Sb
Sb2 1.0000000000 0.3434291003 0.8434291003 0.3434291003  Biso 1.0 Sb
Sb3 1.0000000000 0.8434291003 0.6565708997 0.6565708997  Biso 1.0 Sb
Sb4 1.0000000000 0.6565708997 0.3434291003 0.1565708997  Biso 1.0 Sb
Zr5 1.0000000000 0.8570444931 0.8570444931 0.1429555069  Biso 1.0 Zr
Zr6 1.0000000000 0.6429555069 0.1429555069 0.6429555069  Biso 1.0 Zr
Zr7 1.0000000000 0.1429555069 0.3570444931 0.3570444931  Biso 1.0 Zr
Zr8 1.0000000000 0.3570444931 0.6429555069 0.8570444931  Biso 1.0 Zr
