# AFLOW.org Repositories
# Sb2Tl7   [BCC,BCC,cI54] (STD_PRIM doi:10
data_Sb2Tl7
_pd_phase_name Sb2Tl7
_cell_length_a  10.2928498688
_cell_length_b  10.2928498688
_cell_length_c  10.2928498688
_cell_angle_alpha  109.4712206345
_cell_angle_beta  109.4712206345
_cell_angle_gamma  109.4712206345
_symmetry_space_group_name_H-M  'P1'
_symmetry_Int_Tables_Number  1
loop_
_symmetry_equiv_pos_site_id
_symmetry_equiv_pos_as_xyz
  1  x,y,z
loop_
 _atom_site_label
 _atom_site_occupancy
 _atom_site_fract_x
 _atom_site_fract_y
 _atom_site_fract_z
 _atom_site_thermal_displace_type
 _atom_site_B_iso_or_equiv
 _atom_site_type_symbol
Sb1 1.0000000000 0.6938190535 0.0000000000 0.6938190535  Biso 1.0 Sb
Sb2 1.0000000000 0.3061809465 0.0000000000 0.3061809465  Biso 1.0 Sb
Sb3 1.0000000000 0.3061809465 0.3061809465 0.0000000000  Biso 1.0 Sb
Sb4 1.0000000000 0.6938190535 0.6938190535 0.0000000000  Biso 1.0 Sb
Sb5 1.0000000000 0.0000000000 0.6938190535 0.6938190535  Biso 1.0 Sb
Sb6 1.0000000000 0.0000000000 0.3061809465 0.3061809465  Biso 1.0 Sb
Tl7 1.0000000000 0.0000000000 0.0000000000 0.0000000000  Biso 1.0 Tl
Tl8 1.0000000000 0.0000000000 0.0000000000 0.6618153456  Biso 1.0 Tl
Tl9 1.0000000000 0.6618153456 0.0000000000 0.0000000000  Biso 1.0 Tl
Tl10 1.0000000000 0.0000000000 0.6618153456 0.0000000000  Biso 1.0 Tl
Tl11 1.0000000000 0.3381846544 0.3381846544 0.3381846544  Biso 1.0 Tl
Tl12 1.0000000000 0.3381846544 0.0000000000 0.0000000000  Biso 1.0 Tl
Tl13 1.0000000000 0.0000000000 0.0000000000 0.3381846544  Biso 1.0 Tl
Tl14 1.0000000000 0.0000000000 0.3381846544 0.0000000000  Biso 1.0 Tl
Tl15 1.0000000000 0.6618153456 0.6618153456 0.6618153456  Biso 1.0 Tl
Tl16 1.0000000000 0.3496528862 0.0000000000 0.6503471138  Biso 1.0 Tl
Tl17 1.0000000000 0.6503471138 0.0000000000 0.3496528862  Biso 1.0 Tl
Tl18 1.0000000000 0.6503471138 0.3006942276 0.6503471138  Biso 1.0 Tl
Tl19 1.0000000000 0.3496528862 0.6993057724 0.3496528862  Biso 1.0 Tl
Tl20 1.0000000000 0.6503471138 0.6503471138 0.3006942276  Biso 1.0 Tl
Tl21 1.0000000000 0.3496528862 0.3496528862 0.6993057724  Biso 1.0 Tl
Tl22 1.0000000000 0.6503471138 0.3496528862 0.0000000000  Biso 1.0 Tl
Tl23 1.0000000000 0.3496528862 0.6503471138 0.0000000000  Biso 1.0 Tl
Tl24 1.0000000000 0.0000000000 0.3496528862 0.6503471138  Biso 1.0 Tl
Tl25 1.0000000000 0.0000000000 0.6503471138 0.3496528862  Biso 1.0 Tl
Tl26 1.0000000000 0.6993057724 0.3496528862 0.3496528862  Biso 1.0 Tl
Tl27 1.0000000000 0.3006942276 0.6503471138 0.6503471138  Biso 1.0 Tl
