# AFLOW.org Repositories
# Sb3Sr5   [HEX,HEX,hP16] (STD_PRIM doi:10
data_Sb3Sr5
_pd_phase_name Sb3Sr5
_cell_length_a  9.5955634622
_cell_length_b  9.5955634622
_cell_length_c  7.4557283420
_cell_angle_alpha  90.0000000000
_cell_angle_beta  90.0000000000
_cell_angle_gamma  120.0000000000
_symmetry_space_group_name_H-M  'P1'
_symmetry_Int_Tables_Number  1
loop_
_symmetry_equiv_pos_site_id
_symmetry_equiv_pos_as_xyz
  1  x,y,z
loop_
 _atom_site_label
 _atom_site_occupancy
 _atom_site_fract_x
 _atom_site_fract_y
 _atom_site_fract_z
 _atom_site_thermal_displace_type
 _atom_site_B_iso_or_equiv
 _atom_site_type_symbol
Sb1 1.0000000000 0.0000000000 0.6094828022 0.2500000000  Biso 1.0 Sb
Sb2 1.0000000000 0.3905171978 0.3905171978 0.2500000000  Biso 1.0 Sb
Sb3 1.0000000000 0.6094817179 0.0000000000 0.2500000000  Biso 1.0 Sb
Sb4 1.0000000000 0.0000000000 0.3905171978 0.7500000000  Biso 1.0 Sb
Sb5 1.0000000000 0.6094828022 0.6094828022 0.7500000000  Biso 1.0 Sb
Sb6 1.0000000000 0.3905182821 0.0000000000 0.7500000000  Biso 1.0 Sb
Sr7 1.0000000000 0.6666952969 0.3333905937 0.5000000000  Biso 1.0 Sr
Sr8 1.0000000000 0.3333047031 0.6666094063 0.0000000000  Biso 1.0 Sr
Sr9 1.0000000000 0.3333047031 0.6666094063 0.5000000000  Biso 1.0 Sr
Sr10 1.0000000000 0.6666952969 0.3333905937 0.0000000000  Biso 1.0 Sr
Sr11 1.0000000000 0.0000000000 0.7467800697 0.7500000000  Biso 1.0 Sr
Sr12 1.0000000000 0.2532199303 0.2532199303 0.7500000000  Biso 1.0 Sr
Sr13 1.0000000000 0.7467770720 0.0000000000 0.7500000000  Biso 1.0 Sr
Sr14 1.0000000000 0.0000000000 0.2532199303 0.2500000000  Biso 1.0 Sr
Sr15 1.0000000000 0.7467800697 0.7467800697 0.2500000000  Biso 1.0 Sr
Sr16 1.0000000000 0.2532229280 0.0000000000 0.2500000000  Biso 1.0 Sr
