# AFLOW.org Repositories
# Sb4Zr5   [HEX,HEX,hP18] (STD_PRIM doi:10
data_Sb4Zr5
_pd_phase_name Sb4Zr5
_cell_length_a  8.8481349694
_cell_length_b  8.8481349694
_cell_length_c  5.9573630000
_cell_angle_alpha  90.0000000000
_cell_angle_beta  90.0000000000
_cell_angle_gamma  120.0000000000
_symmetry_space_group_name_H-M  'P1'
_symmetry_Int_Tables_Number  1
loop_
_symmetry_equiv_pos_site_id
_symmetry_equiv_pos_as_xyz
  1  x,y,z
loop_
 _atom_site_label
 _atom_site_occupancy
 _atom_site_fract_x
 _atom_site_fract_y
 _atom_site_fract_z
 _atom_site_thermal_displace_type
 _atom_site_B_iso_or_equiv
 _atom_site_type_symbol
Sb1 1.0000000000 0.3891870547 0.3891870547 0.2500000000  Biso 1.0 Sb
Sb2 1.0000000000 0.6108074459 0.0000000000 0.2500000000  Biso 1.0 Sb
Sb3 1.0000000000 0.0000000000 0.6107956588 0.2500000000  Biso 1.0 Sb
Sb4 1.0000000000 0.6108129453 0.6108129453 0.7500000000  Biso 1.0 Sb
Sb5 1.0000000000 0.3891925541 0.0000000000 0.7500000000  Biso 1.0 Sb
Sb6 1.0000000000 0.0000000000 0.3892043412 0.7500000000  Biso 1.0 Sb
Sb7 1.0000000000 0.0000000000 0.0000000000 0.0000000000  Biso 1.0 Sb
Sb8 1.0000000000 0.0000000000 0.0000000000 0.5000000000  Biso 1.0 Sb
Zr9 1.0000000000 0.7189757545 0.7189757545 0.2500000000  Biso 1.0 Zr
Zr10 1.0000000000 0.2810271419 0.0000000000 0.2500000000  Biso 1.0 Zr
Zr11 1.0000000000 0.0000000000 0.2810306746 0.2500000000  Biso 1.0 Zr
Zr12 1.0000000000 0.2810242455 0.2810242455 0.7500000000  Biso 1.0 Zr
Zr13 1.0000000000 0.7189728581 0.0000000000 0.7500000000  Biso 1.0 Zr
Zr14 1.0000000000 0.0000000000 0.7189693254 0.7500000000  Biso 1.0 Zr
Zr15 1.0000000000 0.3333693578 0.6666846789 0.0000000000  Biso 1.0 Zr
Zr16 1.0000000000 0.6666306422 0.3333153211 0.5000000000  Biso 1.0 Zr
Zr17 1.0000000000 0.6666306422 0.3333153211 0.0000000000  Biso 1.0 Zr
Zr18 1.0000000000 0.3333693578 0.6666846789 0.5000000000  Biso 1.0 Zr
