# AFLOW.org Repositories
# Sc5Si3   [HEX,HEX,hP16] (STD_PRIM doi:10
data_Sc5Si3
_pd_phase_name Sc5Si3
_cell_length_a  7.9951687581
_cell_length_b  7.9951687581
_cell_length_c  5.9306445748
_cell_angle_alpha  90.0000000000
_cell_angle_beta  90.0000000000
_cell_angle_gamma  120.0000000000
_symmetry_space_group_name_H-M  'P1'
_symmetry_Int_Tables_Number  1
loop_
_symmetry_equiv_pos_site_id
_symmetry_equiv_pos_as_xyz
  1  x,y,z
loop_
 _atom_site_label
 _atom_site_occupancy
 _atom_site_fract_x
 _atom_site_fract_y
 _atom_site_fract_z
 _atom_site_thermal_displace_type
 _atom_site_B_iso_or_equiv
 _atom_site_type_symbol
Sc1 1.0000000000 0.3333329361 0.6666670639 0.0000000000  Biso 1.0 Sc
Sc2 1.0000000000 0.6666670639 0.3333329361 0.5000000000  Biso 1.0 Sc
Sc3 1.0000000000 0.6666670639 0.3333329361 0.0000000000  Biso 1.0 Sc
Sc4 1.0000000000 0.3333329361 0.6666670639 0.5000000000  Biso 1.0 Sc
Sc5 1.0000000000 0.2421571001 0.0000000000 0.2500000000  Biso 1.0 Sc
Sc6 1.0000000000 0.0000000000 0.2421571001 0.2500000000  Biso 1.0 Sc
Sc7 1.0000000000 0.7578354367 0.7578354367 0.2500000000  Biso 1.0 Sc
Sc8 1.0000000000 0.7578428999 0.0000000000 0.7500000000  Biso 1.0 Sc
Sc9 1.0000000000 0.0000000000 0.7578428999 0.7500000000  Biso 1.0 Sc
Sc10 1.0000000000 0.2421645633 0.2421645633 0.7500000000  Biso 1.0 Sc
Si11 1.0000000000 0.6055471734 0.0000000000 0.2500000000  Biso 1.0 Si
Si12 1.0000000000 0.0000000000 0.6055471734 0.2500000000  Biso 1.0 Si
Si13 1.0000000000 0.3944588342 0.3944588342 0.2500000000  Biso 1.0 Si
Si14 1.0000000000 0.3944528266 0.0000000000 0.7500000000  Biso 1.0 Si
Si15 1.0000000000 0.0000000000 0.3944528266 0.7500000000  Biso 1.0 Si
Si16 1.0000000000 0.6055411658 0.6055411658 0.7500000000  Biso 1.0 Si
