# AFLOW.org Repositories
# Se1Tl1   [BCT,BCT1,tI16] (STD_PRIM doi:1
data_Se1Tl1
_pd_phase_name Se1Tl1
_cell_length_a  6.8179738605
_cell_length_b  6.8179738605
_cell_length_c  6.8179738605
_cell_angle_alpha  105.8771559789
_cell_angle_beta  105.8771559789
_cell_angle_gamma  116.9265884886
_symmetry_space_group_name_H-M  'P1'
_symmetry_Int_Tables_Number  1
loop_
_symmetry_equiv_pos_site_id
_symmetry_equiv_pos_as_xyz
  1  x,y,z
loop_
 _atom_site_label
 _atom_site_occupancy
 _atom_site_fract_x
 _atom_site_fract_y
 _atom_site_fract_z
 _atom_site_thermal_displace_type
 _atom_site_B_iso_or_equiv
 _atom_site_type_symbol
Se1 1.0000000000 0.8222124954 0.6777875046 0.5000000000  Biso 1.0 Se
Se2 1.0000000000 0.1777875046 0.3222124954 0.5000000000  Biso 1.0 Se
Se3 1.0000000000 0.6777875046 0.1777875046 0.8555750092  Biso 1.0 Se
Se4 1.0000000000 0.3222124954 0.8222124954 0.1444249908  Biso 1.0 Se
Tl5 1.0000000000 0.2500000000 0.2500000000 0.0000000000  Biso 1.0 Tl
Tl6 1.0000000000 0.7500000000 0.7500000000 0.0000000000  Biso 1.0 Tl
Tl7 1.0000000000 0.2500000000 0.7500000000 0.5000000000  Biso 1.0 Tl
Tl8 1.0000000000 0.7500000000 0.2500000000 0.5000000000  Biso 1.0 Tl
