# AFLOW.org Repositories
# Se1V1   [HEX,HEX,hP4] (STD_PRIM doi:10.1
data_Se1V1
_pd_phase_name Se1V1
_cell_length_a  3.8306273700
_cell_length_b  3.8306273700
_cell_length_c  6.2989348871
_cell_angle_alpha  90.0000000000
_cell_angle_beta  90.0000000000
_cell_angle_gamma  120.0000000000
_symmetry_space_group_name_H-M  'P1'
_symmetry_Int_Tables_Number  1
loop_
_symmetry_equiv_pos_site_id
_symmetry_equiv_pos_as_xyz
  1  x,y,z
loop_
 _atom_site_label
 _atom_site_occupancy
 _atom_site_fract_x
 _atom_site_fract_y
 _atom_site_fract_z
 _atom_site_thermal_displace_type
 _atom_site_B_iso_or_equiv
 _atom_site_type_symbol
Se1 1.0000000000 0.6666789964 0.3333472342 0.2500000000  Biso 1.0 Se
Se2 1.0000000000 0.3333210036 0.6666527658 0.7500000000  Biso 1.0 Se
V3 1.0000000000 0.0000000000 0.0000000000 0.0000000000  Biso 1.0 V
V4 1.0000000000 0.0000000000 0.0000000000 0.5000000000  Biso 1.0 V
