# AFLOW.org Repositories
# Se2Ta1   [HEX,HEX,hP6] (STD_PRIM doi:10.
data_Se2Ta1
_pd_phase_name Se2Ta1
_cell_length_a  3.4934629364
_cell_length_b  3.4934629364
_cell_length_c  13.8527352333
_cell_angle_alpha  90.0000000000
_cell_angle_beta  90.0000000000
_cell_angle_gamma  120.0000000000
_symmetry_space_group_name_H-M  'P1'
_symmetry_Int_Tables_Number  1
loop_
_symmetry_equiv_pos_site_id
_symmetry_equiv_pos_as_xyz
  1  x,y,z
loop_
 _atom_site_label
 _atom_site_occupancy
 _atom_site_fract_x
 _atom_site_fract_y
 _atom_site_fract_z
 _atom_site_thermal_displace_type
 _atom_site_B_iso_or_equiv
 _atom_site_type_symbol
Se1 1.0000000000 0.3333213369 0.6666786631 0.1281306527  Biso 1.0 Se
Se2 1.0000000000 0.6666786631 0.3333213369 0.6281306527  Biso 1.0 Se
Se3 1.0000000000 0.6666786631 0.3333213369 0.8718693473  Biso 1.0 Se
Se4 1.0000000000 0.3333213369 0.6666786631 0.3718693473  Biso 1.0 Se
Ta5 1.0000000000 0.0000000000 0.0000000000 0.2500000000  Biso 1.0 Ta
Ta6 1.0000000000 0.0000000000 0.0000000000 0.7500000000  Biso 1.0 Ta
