# AFLOW.org Repositories
# Se2Th1   [ORC,ORC,oP12] (STD_PRIM doi:10
data_Se2Th1
_pd_phase_name Se2Th1
_cell_length_a  4.5332914829
_cell_length_b  7.7787039147
_cell_length_c  9.3379323256
_cell_angle_alpha  90.0000000000
_cell_angle_beta  90.0000000000
_cell_angle_gamma  90.0000000000
_symmetry_space_group_name_H-M  'P1'
_symmetry_Int_Tables_Number  1
loop_
_symmetry_equiv_pos_site_id
_symmetry_equiv_pos_as_xyz
  1  x,y,z
loop_
 _atom_site_label
 _atom_site_occupancy
 _atom_site_fract_x
 _atom_site_fract_y
 _atom_site_fract_z
 _atom_site_thermal_displace_type
 _atom_site_B_iso_or_equiv
 _atom_site_type_symbol
Se1 1.0000000000 0.2500000000 0.3596799977 0.5715956929  Biso 1.0 Se
Se2 1.0000000000 0.7500000000 0.1403200023 0.0715956929  Biso 1.0 Se
Se3 1.0000000000 0.7500000000 0.6403200023 0.4284043071  Biso 1.0 Se
Se4 1.0000000000 0.2500000000 0.8596799977 0.9284043071  Biso 1.0 Se
Se5 1.0000000000 0.2500000000 0.4711671128 0.1627298351  Biso 1.0 Se
Se6 1.0000000000 0.7500000000 0.0288328872 0.6627298351  Biso 1.0 Se
Se7 1.0000000000 0.7500000000 0.5288328872 0.8372701649  Biso 1.0 Se
Se8 1.0000000000 0.2500000000 0.9711671128 0.3372701649  Biso 1.0 Se
Th9 1.0000000000 0.2500000000 0.2478323309 0.8786450904  Biso 1.0 Th
Th10 1.0000000000 0.7500000000 0.2521676691 0.3786450904  Biso 1.0 Th
Th11 1.0000000000 0.7500000000 0.7521676691 0.1213549096  Biso 1.0 Th
Th12 1.0000000000 0.2500000000 0.7478323309 0.6213549096  Biso 1.0 Th
