# AFLOW.org Repositories
# Se3Sn1Tl4   [BCT,BCT2,tI32] (STD_PRIM do
data_Se3Sn1Tl4
_pd_phase_name Se3Sn1Tl4
_cell_length_a  8.8040572031
_cell_length_b  8.8040572031
_cell_length_c  8.8040572031
_cell_angle_alpha  122.0685346790
_cell_angle_beta  122.0685346790
_cell_angle_gamma  86.4530418224
_symmetry_space_group_name_H-M  'P1'
_symmetry_Int_Tables_Number  1
loop_
_symmetry_equiv_pos_site_id
_symmetry_equiv_pos_as_xyz
  1  x,y,z
loop_
 _atom_site_label
 _atom_site_occupancy
 _atom_site_fract_x
 _atom_site_fract_y
 _atom_site_fract_z
 _atom_site_thermal_displace_type
 _atom_site_B_iso_or_equiv
 _atom_site_type_symbol
Se1 1.0000000000 0.2500000000 0.2500000000 0.0000000000  Biso 1.0 Se
Se2 1.0000000000 0.7500000000 0.7500000000 0.0000000000  Biso 1.0 Se
Se3 1.0000000000 0.3345261318 0.1654738682 0.5000000000  Biso 1.0 Se
Se4 1.0000000000 0.6654738682 0.8345261318 0.5000000000  Biso 1.0 Se
Se5 1.0000000000 0.1654738682 0.6654738682 0.8309477364  Biso 1.0 Se
Se6 1.0000000000 0.8345261318 0.3345261318 0.1690522636  Biso 1.0 Se
Sn7 1.0000000000 0.0000000000 0.0000000000 0.0000000000  Biso 1.0 Sn
Sn8 1.0000000000 0.5000000000 0.5000000000 0.0000000000  Biso 1.0 Sn
Tl9 1.0000000000 0.3043066891 0.5067724493 0.5000000000  Biso 1.0 Tl
Tl10 1.0000000000 0.0067724493 0.8043066891 0.5000000000  Biso 1.0 Tl
Tl11 1.0000000000 0.5067724493 0.0067724493 0.2024657602  Biso 1.0 Tl
Tl12 1.0000000000 0.8043066891 0.3043066891 0.7975342398  Biso 1.0 Tl
Tl13 1.0000000000 0.1956933109 0.6956933109 0.2024657602  Biso 1.0 Tl
Tl14 1.0000000000 0.4932275507 0.9932275507 0.7975342398  Biso 1.0 Tl
Tl15 1.0000000000 0.9932275507 0.1956933109 0.5000000000  Biso 1.0 Tl
Tl16 1.0000000000 0.6956933109 0.4932275507 0.5000000000  Biso 1.0 Tl
