# AFLOW.org Repositories
# Se3Sr1Zr1   [ORC,ORC,oP20] (STD_PRIM doi
data_Se3Sr1Zr1
_pd_phase_name Se3Sr1Zr1
_cell_length_a  3.9920644644
_cell_length_b  9.0588977028
_cell_length_c  14.6528435627
_cell_angle_alpha  90.0000000000
_cell_angle_beta  90.0000000000
_cell_angle_gamma  90.0000000000
_symmetry_space_group_name_H-M  'P1'
_symmetry_Int_Tables_Number  1
loop_
_symmetry_equiv_pos_site_id
_symmetry_equiv_pos_as_xyz
  1  x,y,z
loop_
 _atom_site_label
 _atom_site_occupancy
 _atom_site_fract_x
 _atom_site_fract_y
 _atom_site_fract_z
 _atom_site_thermal_displace_type
 _atom_site_B_iso_or_equiv
 _atom_site_type_symbol
Se1 1.0000000000 0.2500000000 0.0193066525 0.3922299314  Biso 1.0 Se
Se2 1.0000000000 0.7500000000 0.4806933475 0.8922299314  Biso 1.0 Se
Se3 1.0000000000 0.7500000000 0.9806933475 0.6077700686  Biso 1.0 Se
Se4 1.0000000000 0.2500000000 0.5193066525 0.1077700686  Biso 1.0 Se
Se5 1.0000000000 0.2500000000 0.1602417559 0.9866538295  Biso 1.0 Se
Se6 1.0000000000 0.7500000000 0.3397582441 0.4866538295  Biso 1.0 Se
Se7 1.0000000000 0.7500000000 0.8397582441 0.0133461705  Biso 1.0 Se
Se8 1.0000000000 0.2500000000 0.6602417559 0.5133461705  Biso 1.0 Se
Se9 1.0000000000 0.2500000000 0.2898195731 0.7188843906  Biso 1.0 Se
Se10 1.0000000000 0.7500000000 0.2101804269 0.2188843906  Biso 1.0 Se
Se11 1.0000000000 0.7500000000 0.7101804269 0.2811156094  Biso 1.0 Se
Se12 1.0000000000 0.2500000000 0.7898195731 0.7811156094  Biso 1.0 Se
Sr13 1.0000000000 0.2500000000 0.4404497971 0.3217656255  Biso 1.0 Sr
Sr14 1.0000000000 0.7500000000 0.0595502029 0.8217656255  Biso 1.0 Sr
Sr15 1.0000000000 0.7500000000 0.5595502029 0.6782343745  Biso 1.0 Sr
Sr16 1.0000000000 0.2500000000 0.9404497971 0.1782343745  Biso 1.0 Sr
Zr17 1.0000000000 0.2500000000 0.1699035191 0.5572718754  Biso 1.0 Zr
Zr18 1.0000000000 0.7500000000 0.3300964809 0.0572718754  Biso 1.0 Zr
Zr19 1.0000000000 0.7500000000 0.8300964809 0.4427281246  Biso 1.0 Zr
Zr20 1.0000000000 0.2500000000 0.6699035191 0.9427281246  Biso 1.0 Zr
