# AFLOW.org Repositories
# Se3Th2   [ORC,ORC,oP20] (STD_PRIM doi:10
data_Se3Th2
_pd_phase_name Se3Th2
_cell_length_a  4.1028679701
_cell_length_b  11.5979666113
_cell_length_c  11.8730626781
_cell_angle_alpha  90.0000000000
_cell_angle_beta  90.0000000000
_cell_angle_gamma  90.0000000000
_symmetry_space_group_name_H-M  'P1'
_symmetry_Int_Tables_Number  1
loop_
_symmetry_equiv_pos_site_id
_symmetry_equiv_pos_as_xyz
  1  x,y,z
loop_
 _atom_site_label
 _atom_site_occupancy
 _atom_site_fract_x
 _atom_site_fract_y
 _atom_site_fract_z
 _atom_site_thermal_displace_type
 _atom_site_B_iso_or_equiv
 _atom_site_type_symbol
Se1 1.0000000000 0.2500000000 0.0537850048 0.1188074208  Biso 1.0 Se
Se2 1.0000000000 0.7500000000 0.4460844644 0.6187521473  Biso 1.0 Se
Se3 1.0000000000 0.7500000000 0.9462149952 0.8811925792  Biso 1.0 Se
Se4 1.0000000000 0.2500000000 0.5539155356 0.3812478527  Biso 1.0 Se
Se5 1.0000000000 0.7500000000 0.1197506391 0.5536610406  Biso 1.0 Se
Se6 1.0000000000 0.2500000000 0.3804731115 0.0536391692  Biso 1.0 Se
Se7 1.0000000000 0.2500000000 0.8802493609 0.4463389594  Biso 1.0 Se
Se8 1.0000000000 0.7500000000 0.6195268885 0.9463608308  Biso 1.0 Se
Se9 1.0000000000 0.2500000000 0.2104615259 0.7944995418  Biso 1.0 Se
Se10 1.0000000000 0.7500000000 0.2894024276 0.2940979852  Biso 1.0 Se
Se11 1.0000000000 0.7500000000 0.7895384741 0.2055004582  Biso 1.0 Se
Se12 1.0000000000 0.2500000000 0.7105975724 0.7059020148  Biso 1.0 Se
Th13 1.0000000000 0.2500000000 0.9697172883 0.6860098565  Biso 1.0 Th
Th14 1.0000000000 0.7500000000 0.5303900688 0.1861171115  Biso 1.0 Th
Th15 1.0000000000 0.7500000000 0.0302827117 0.3139901435  Biso 1.0 Th
Th16 1.0000000000 0.2500000000 0.4696099312 0.8138828885  Biso 1.0 Th
Th17 1.0000000000 0.7500000000 0.2012713275 0.9796973012  Biso 1.0 Th
Th18 1.0000000000 0.2500000000 0.2988045640 0.4793027405  Biso 1.0 Th
Th19 1.0000000000 0.2500000000 0.7987286725 0.0203026988  Biso 1.0 Th
Th20 1.0000000000 0.7500000000 0.7011954360 0.5206972595  Biso 1.0 Th
