# AFLOW.org Repositories
# Se3Tb2   [ORC,ORC,oP20] (STD_PRIM doi:10
data_Se3Tb2
_pd_phase_name Se3Tb2
_cell_length_a  4.0501113729
_cell_length_b  11.0035853196
_cell_length_c  11.2175103975
_cell_angle_alpha  90.0000000000
_cell_angle_beta  90.0000000000
_cell_angle_gamma  90.0000000000
_symmetry_space_group_name_H-M  'P1'
_symmetry_Int_Tables_Number  1
loop_
_symmetry_equiv_pos_site_id
_symmetry_equiv_pos_as_xyz
  1  x,y,z
loop_
 _atom_site_label
 _atom_site_occupancy
 _atom_site_fract_x
 _atom_site_fract_y
 _atom_site_fract_z
 _atom_site_thermal_displace_type
 _atom_site_B_iso_or_equiv
 _atom_site_type_symbol
Se1 1.0000000000 0.7500000000 0.1251109137 0.0446639952  Biso 1.0 Se
Se2 1.0000000000 0.2500000000 0.6251109137 0.4553360048  Biso 1.0 Se
Se3 1.0000000000 0.2500000000 0.8748890863 0.9553360048  Biso 1.0 Se
Se4 1.0000000000 0.7500000000 0.3748890863 0.5446639952  Biso 1.0 Se
Se5 1.0000000000 0.2500000000 0.5553972185 0.1192683046  Biso 1.0 Se
Se6 1.0000000000 0.7500000000 0.0553972185 0.3807316954  Biso 1.0 Se
Se7 1.0000000000 0.7500000000 0.4446027815 0.8807316954  Biso 1.0 Se
Se8 1.0000000000 0.2500000000 0.9446027815 0.6192683046  Biso 1.0 Se
Se9 1.0000000000 0.7500000000 0.8030602718 0.2270550126  Biso 1.0 Se
Se10 1.0000000000 0.2500000000 0.3030602718 0.2729449874  Biso 1.0 Se
Se11 1.0000000000 0.2500000000 0.1969397282 0.7729449874  Biso 1.0 Se
Se12 1.0000000000 0.7500000000 0.6969397282 0.7270550126  Biso 1.0 Se
Tb13 1.0000000000 0.7500000000 0.6876128548 0.9878120305  Biso 1.0 Tb
Tb14 1.0000000000 0.2500000000 0.1876128548 0.5121879695  Biso 1.0 Tb
Tb15 1.0000000000 0.2500000000 0.3123871452 0.0121879695  Biso 1.0 Tb
Tb16 1.0000000000 0.7500000000 0.8123871452 0.4878120305  Biso 1.0 Tb
Tb17 1.0000000000 0.2500000000 0.9980590274 0.1938960561  Biso 1.0 Tb
Tb18 1.0000000000 0.7500000000 0.4980590274 0.3061039439  Biso 1.0 Tb
Tb19 1.0000000000 0.7500000000 0.0019409726 0.8061039439  Biso 1.0 Tb
Tb20 1.0000000000 0.2500000000 0.5019409726 0.6938960561  Biso 1.0 Tb
