# AFLOW.org Repositories
# Si136   [FCC,FCC,cF136] (STD_PRIM doi:10
data_Si136
_pd_phase_name Si136
_cell_length_a  10.4200890809
_cell_length_b  10.4200890809
_cell_length_c  10.4200890809
_cell_angle_alpha  60.0000000000
_cell_angle_beta  60.0000000000
_cell_angle_gamma  60.0000000000
_symmetry_space_group_name_H-M  'P1'
_symmetry_Int_Tables_Number  1
loop_
_symmetry_equiv_pos_site_id
_symmetry_equiv_pos_as_xyz
  1  x,y,z
loop_
 _atom_site_label
 _atom_site_occupancy
 _atom_site_fract_x
 _atom_site_fract_y
 _atom_site_fract_z
 _atom_site_thermal_displace_type
 _atom_site_B_iso_or_equiv
 _atom_site_type_symbol
Si1 1.0000000000 0.0000000000 0.0000000000 0.0000000000  Biso 1.0 Si
Si2 1.0000000000 0.7500000000 0.7500000000 0.7500000000  Biso 1.0 Si
Si3 1.0000000000 0.1102666484 0.1102666484 0.1102666484  Biso 1.0 Si
Si4 1.0000000000 0.1102666484 0.1102666484 0.6692000547  Biso 1.0 Si
Si5 1.0000000000 0.6692000547 0.1102666484 0.1102666484  Biso 1.0 Si
Si6 1.0000000000 0.1102666484 0.6692000547 0.1102666484  Biso 1.0 Si
Si7 1.0000000000 0.6397333516 0.6397333516 0.0807999453  Biso 1.0 Si
Si8 1.0000000000 0.6397333516 0.6397333516 0.6397333516  Biso 1.0 Si
Si9 1.0000000000 0.0807999453 0.6397333516 0.6397333516  Biso 1.0 Si
Si10 1.0000000000 0.6397333516 0.0807999453 0.6397333516  Biso 1.0 Si
Si11 1.0000000000 0.7471022093 0.7471022093 0.1356207457  Biso 1.0 Si
Si12 1.0000000000 0.7471022093 0.7471022093 0.3701748356  Biso 1.0 Si
Si13 1.0000000000 0.3701748356 0.1356207457 0.7471022093  Biso 1.0 Si
Si14 1.0000000000 0.1356207457 0.3701748356 0.7471022093  Biso 1.0 Si
Si15 1.0000000000 0.7471022093 0.1356207457 0.7471022093  Biso 1.0 Si
Si16 1.0000000000 0.7471022093 0.3701748356 0.7471022093  Biso 1.0 Si
Si17 1.0000000000 0.1356207457 0.7471022093 0.3701748356  Biso 1.0 Si
Si18 1.0000000000 0.3701748356 0.7471022093 0.1356207457  Biso 1.0 Si
Si19 1.0000000000 0.1356207457 0.7471022093 0.7471022093  Biso 1.0 Si
Si20 1.0000000000 0.3701748356 0.7471022093 0.7471022093  Biso 1.0 Si
Si21 1.0000000000 0.7471022093 0.3701748356 0.1356207457  Biso 1.0 Si
Si22 1.0000000000 0.7471022093 0.1356207457 0.3701748356  Biso 1.0 Si
Si23 1.0000000000 0.0028977907 0.0028977907 0.3798251644  Biso 1.0 Si
Si24 1.0000000000 0.0028977907 0.0028977907 0.6143792543  Biso 1.0 Si
Si25 1.0000000000 0.3798251644 0.6143792543 0.0028977907  Biso 1.0 Si
Si26 1.0000000000 0.6143792543 0.3798251644 0.0028977907  Biso 1.0 Si
Si27 1.0000000000 0.0028977907 0.6143792543 0.3798251644  Biso 1.0 Si
Si28 1.0000000000 0.0028977907 0.3798251644 0.6143792543  Biso 1.0 Si
Si29 1.0000000000 0.6143792543 0.0028977907 0.0028977907  Biso 1.0 Si
Si30 1.0000000000 0.3798251644 0.0028977907 0.0028977907  Biso 1.0 Si
Si31 1.0000000000 0.6143792543 0.0028977907 0.3798251644  Biso 1.0 Si
Si32 1.0000000000 0.3798251644 0.0028977907 0.6143792543  Biso 1.0 Si
Si33 1.0000000000 0.0028977907 0.3798251644 0.0028977907  Biso 1.0 Si
Si34 1.0000000000 0.0028977907 0.6143792543 0.0028977907  Biso 1.0 Si
