# AFLOW.org Repositories
# Si1   [CUB,CUB,cP46] (STD_PRIM doi:10.10
data_Si1
_pd_phase_name Si1
_cell_length_a  10.2269941814
_cell_length_b  10.2269941814
_cell_length_c  10.2269941814
_cell_angle_alpha  90.0000000000
_cell_angle_beta  90.0000000000
_cell_angle_gamma  90.0000000000
_symmetry_space_group_name_H-M  'P1'
_symmetry_Int_Tables_Number  1
loop_
_symmetry_equiv_pos_site_id
_symmetry_equiv_pos_as_xyz
  1  x,y,z
loop_
 _atom_site_label
 _atom_site_occupancy
 _atom_site_fract_x
 _atom_site_fract_y
 _atom_site_fract_z
 _atom_site_thermal_displace_type
 _atom_site_B_iso_or_equiv
 _atom_site_type_symbol
Si1 1.0000000000 0.8163215938 0.8163215938 0.1836784062  Biso 1.0 Si
Si2 1.0000000000 0.1836784062 0.1836784062 0.1836784062  Biso 1.0 Si
Si3 1.0000000000 0.1836784062 0.8163215938 0.8163215938  Biso 1.0 Si
Si4 1.0000000000 0.8163215938 0.1836784062 0.8163215938  Biso 1.0 Si
Si5 1.0000000000 0.3163215938 0.3163215938 0.3163215938  Biso 1.0 Si
Si6 1.0000000000 0.6836784062 0.6836784062 0.3163215938  Biso 1.0 Si
Si7 1.0000000000 0.3163215938 0.6836784062 0.6836784062  Biso 1.0 Si
Si8 1.0000000000 0.6836784062 0.3163215938 0.6836784062  Biso 1.0 Si
Si9 1.0000000000 0.1836784062 0.1836784062 0.8163215938  Biso 1.0 Si
Si10 1.0000000000 0.8163215938 0.8163215938 0.8163215938  Biso 1.0 Si
Si11 1.0000000000 0.8163215938 0.1836784062 0.1836784062  Biso 1.0 Si
Si12 1.0000000000 0.1836784062 0.8163215938 0.1836784062  Biso 1.0 Si
Si13 1.0000000000 0.6836784062 0.6836784062 0.6836784062  Biso 1.0 Si
Si14 1.0000000000 0.3163215938 0.3163215938 0.6836784062  Biso 1.0 Si
Si15 1.0000000000 0.6836784062 0.3163215938 0.3163215938  Biso 1.0 Si
Si16 1.0000000000 0.3163215938 0.6836784062 0.3163215938  Biso 1.0 Si
Si17 1.0000000000 0.5000000000 0.1921607520 0.6171894973  Biso 1.0 Si
Si18 1.0000000000 0.5000000000 0.8078392480 0.6171894973  Biso 1.0 Si
Si19 1.0000000000 0.5000000000 0.1921607520 0.3828105027  Biso 1.0 Si
Si20 1.0000000000 0.5000000000 0.8078392480 0.3828105027  Biso 1.0 Si
Si21 1.0000000000 0.3828105027 0.5000000000 0.8078392480  Biso 1.0 Si
Si22 1.0000000000 0.3828105027 0.5000000000 0.1921607520  Biso 1.0 Si
Si23 1.0000000000 0.6171894973 0.5000000000 0.8078392480  Biso 1.0 Si
Si24 1.0000000000 0.6171894973 0.5000000000 0.1921607520  Biso 1.0 Si
Si25 1.0000000000 0.1921607520 0.3828105027 0.5000000000  Biso 1.0 Si
Si26 1.0000000000 0.8078392480 0.3828105027 0.5000000000  Biso 1.0 Si
Si27 1.0000000000 0.1921607520 0.6171894973 0.5000000000  Biso 1.0 Si
Si28 1.0000000000 0.8078392480 0.6171894973 0.5000000000  Biso 1.0 Si
Si29 1.0000000000 0.6921607520 0.0000000000 0.8828105027  Biso 1.0 Si
Si30 1.0000000000 0.3078392480 0.0000000000 0.8828105027  Biso 1.0 Si
Si31 1.0000000000 0.6921607520 0.0000000000 0.1171894973  Biso 1.0 Si
Si32 1.0000000000 0.3078392480 0.0000000000 0.1171894973  Biso 1.0 Si
Si33 1.0000000000 0.0000000000 0.8828105027 0.6921607520  Biso 1.0 Si
Si34 1.0000000000 0.0000000000 0.8828105027 0.3078392480  Biso 1.0 Si
Si35 1.0000000000 0.0000000000 0.1171894973 0.6921607520  Biso 1.0 Si
Si36 1.0000000000 0.0000000000 0.1171894973 0.3078392480  Biso 1.0 Si
Si37 1.0000000000 0.8828105027 0.6921607520 0.0000000000  Biso 1.0 Si
Si38 1.0000000000 0.8828105027 0.3078392480 0.0000000000  Biso 1.0 Si
Si39 1.0000000000 0.1171894973 0.6921607520 0.0000000000  Biso 1.0 Si
Si40 1.0000000000 0.1171894973 0.3078392480 0.0000000000  Biso 1.0 Si
Si41 1.0000000000 0.7500000000 0.5000000000 0.0000000000  Biso 1.0 Si
Si42 1.0000000000 0.2500000000 0.5000000000 0.0000000000  Biso 1.0 Si
Si43 1.0000000000 0.0000000000 0.7500000000 0.5000000000  Biso 1.0 Si
Si44 1.0000000000 0.0000000000 0.2500000000 0.5000000000  Biso 1.0 Si
Si45 1.0000000000 0.5000000000 0.0000000000 0.2500000000  Biso 1.0 Si
Si46 1.0000000000 0.5000000000 0.0000000000 0.7500000000  Biso 1.0 Si
