# AFLOW.org Repositories
# Si1Sr2   [ORC,ORC,oP12] (STD_PRIM doi:10
data_Si1Sr2
_pd_phase_name Si1Sr2
_cell_length_a  5.1460687062
_cell_length_b  8.1255781770
_cell_length_c  9.6164696720
_cell_angle_alpha  90.0000000000
_cell_angle_beta  90.0000000000
_cell_angle_gamma  90.0000000000
_symmetry_space_group_name_H-M  'P1'
_symmetry_Int_Tables_Number  1
loop_
_symmetry_equiv_pos_site_id
_symmetry_equiv_pos_as_xyz
  1  x,y,z
loop_
 _atom_site_label
 _atom_site_occupancy
 _atom_site_fract_x
 _atom_site_fract_y
 _atom_site_fract_z
 _atom_site_thermal_displace_type
 _atom_site_B_iso_or_equiv
 _atom_site_type_symbol
Si1 1.0000000000 0.2500000000 0.7522385666 0.6027057346  Biso 1.0 Si
Si2 1.0000000000 0.7500000000 0.7477614334 0.1027057346  Biso 1.0 Si
Si3 1.0000000000 0.7500000000 0.2477614334 0.3972942654  Biso 1.0 Si
Si4 1.0000000000 0.2500000000 0.2522385666 0.8972942654  Biso 1.0 Si
Sr5 1.0000000000 0.2500000000 0.1506930398 0.5776954548  Biso 1.0 Sr
Sr6 1.0000000000 0.7500000000 0.3493069602 0.0776954548  Biso 1.0 Sr
Sr7 1.0000000000 0.7500000000 0.8493069602 0.4223045452  Biso 1.0 Sr
Sr8 1.0000000000 0.2500000000 0.6506930398 0.9223045452  Biso 1.0 Sr
Sr9 1.0000000000 0.2500000000 0.0189890160 0.1736872164  Biso 1.0 Sr
Sr10 1.0000000000 0.7500000000 0.4810109840 0.6736872164  Biso 1.0 Sr
Sr11 1.0000000000 0.7500000000 0.9810109840 0.8263127836  Biso 1.0 Sr
Sr12 1.0000000000 0.2500000000 0.5189890160 0.3263127836  Biso 1.0 Sr
