# AFLOW.org Repositories
# Si1Ta2   [BCT,BCT1,tI12] (STD_PRIM doi:1
data_Si1Ta2
_pd_phase_name Si1Ta2
_cell_length_a  5.0953197868
_cell_length_b  5.0953197868
_cell_length_c  5.0953197868
_cell_angle_alpha  104.5841749082
_cell_angle_beta  104.5841749082
_cell_angle_gamma  119.7618374558
_symmetry_space_group_name_H-M  'P1'
_symmetry_Int_Tables_Number  1
loop_
_symmetry_equiv_pos_site_id
_symmetry_equiv_pos_as_xyz
  1  x,y,z
loop_
 _atom_site_label
 _atom_site_occupancy
 _atom_site_fract_x
 _atom_site_fract_y
 _atom_site_fract_z
 _atom_site_thermal_displace_type
 _atom_site_B_iso_or_equiv
 _atom_site_type_symbol
Si1 1.0000000000 0.2500000000 0.2500000000 0.0000000000  Biso 1.0 Si
Si2 1.0000000000 0.7500000000 0.7500000000 0.0000000000  Biso 1.0 Si
Ta3 1.0000000000 0.8364370090 0.6635629910 0.5000000000  Biso 1.0 Ta
Ta4 1.0000000000 0.1635629910 0.3364370090 0.5000000000  Biso 1.0 Ta
Ta5 1.0000000000 0.6635629910 0.1635629910 0.8271259819  Biso 1.0 Ta
Ta6 1.0000000000 0.3364370090 0.8364370090 0.1728740181  Biso 1.0 Ta
