# AFLOW.org Repositories
# Si1Y1   [ORCC,ORCC,oS8] (STD_PRIM doi:10
data_Si1Y1
_pd_phase_name Si1Y1
_cell_length_a  5.6980645642
_cell_length_b  5.6980645642
_cell_length_c  3.8415674355
_cell_angle_alpha  90.0000000000
_cell_angle_beta  90.0000000000
_cell_angle_gamma  135.8660995282
_symmetry_space_group_name_H-M  'P1'
_symmetry_Int_Tables_Number  1
loop_
_symmetry_equiv_pos_site_id
_symmetry_equiv_pos_as_xyz
  1  x,y,z
loop_
 _atom_site_label
 _atom_site_occupancy
 _atom_site_fract_x
 _atom_site_fract_y
 _atom_site_fract_z
 _atom_site_thermal_displace_type
 _atom_site_B_iso_or_equiv
 _atom_site_type_symbol
Si1 1.0000000000 0.5759696429 0.4240303571 0.7500000000  Biso 1.0 Si
Si2 1.0000000000 0.4240303571 0.5759696429 0.2500000000  Biso 1.0 Si
Y3 1.0000000000 0.8595547386 0.1404452614 0.7500000000  Biso 1.0 Y
Y4 1.0000000000 0.1404452614 0.8595547386 0.2500000000  Biso 1.0 Y
