# AFLOW.org Repositories
# Si1Zr1   [ORC,ORC,oP8] (STD_PRIM doi:10.
data_Si1Zr1
_pd_phase_name Si1Zr1
_cell_length_a  3.8065979373
_cell_length_b  5.3293741782
_cell_length_c  7.0256243673
_cell_angle_alpha  90.0000000000
_cell_angle_beta  90.0000000000
_cell_angle_gamma  90.0000000000
_symmetry_space_group_name_H-M  'P1'
_symmetry_Int_Tables_Number  1
loop_
_symmetry_equiv_pos_site_id
_symmetry_equiv_pos_as_xyz
  1  x,y,z
loop_
 _atom_site_label
 _atom_site_occupancy
 _atom_site_fract_x
 _atom_site_fract_y
 _atom_site_fract_z
 _atom_site_thermal_displace_type
 _atom_site_B_iso_or_equiv
 _atom_site_type_symbol
Si1 1.0000000000 0.7500000000 0.3615529533 0.0423908168  Biso 1.0 Si
Si2 1.0000000000 0.2500000000 0.8615529533 0.4576091832  Biso 1.0 Si
Si3 1.0000000000 0.2500000000 0.6384470467 0.9576091832  Biso 1.0 Si
Si4 1.0000000000 0.7500000000 0.1384470467 0.5423908168  Biso 1.0 Si
Zr5 1.0000000000 0.7500000000 0.8746025475 0.1760599678  Biso 1.0 Zr
Zr6 1.0000000000 0.2500000000 0.3746025475 0.3239400322  Biso 1.0 Zr
Zr7 1.0000000000 0.2500000000 0.1253974525 0.8239400322  Biso 1.0 Zr
Zr8 1.0000000000 0.7500000000 0.6253974525 0.6760599678  Biso 1.0 Zr
