# AFLOW.org Repositories
# Si1Zr2   [BCT,BCT1,tI12] (STD_PRIM doi:1
data_Si1Zr2
_pd_phase_name Si1Zr2
_cell_length_a  5.3903346763
_cell_length_b  5.3903346763
_cell_length_c  5.3903346763
_cell_angle_alpha  104.0692574622
_cell_angle_beta  104.0692574622
_cell_angle_gamma  120.9180024656
_symmetry_space_group_name_H-M  'P1'
_symmetry_Int_Tables_Number  1
loop_
_symmetry_equiv_pos_site_id
_symmetry_equiv_pos_as_xyz
  1  x,y,z
loop_
 _atom_site_label
 _atom_site_occupancy
 _atom_site_fract_x
 _atom_site_fract_y
 _atom_site_fract_z
 _atom_site_thermal_displace_type
 _atom_site_B_iso_or_equiv
 _atom_site_type_symbol
Si1 1.0000000000 0.2500000000 0.2500000000 0.0000000000  Biso 1.0 Si
Si2 1.0000000000 0.7500000000 0.7500000000 0.0000000000  Biso 1.0 Si
Zr3 1.0000000000 0.1580274785 0.3419725215 0.5000000000  Biso 1.0 Zr
Zr4 1.0000000000 0.8419725215 0.6580274785 0.5000000000  Biso 1.0 Zr
Zr5 1.0000000000 0.3419725215 0.8419725215 0.1839450430  Biso 1.0 Zr
Zr6 1.0000000000 0.6580274785 0.1580274785 0.8160549570  Biso 1.0 Zr
