# AFLOW.org Repositories
# Si2Sr1   [BCT,BCT2,tI12] (STD_PRIM doi:1
data_Si2Sr1
_pd_phase_name Si2Sr1
_cell_length_a  7.6077008227
_cell_length_b  7.6077008227
_cell_length_c  7.6077008227
_cell_angle_alpha  145.8728355692
_cell_angle_beta  145.8728355692
_cell_angle_gamma  49.0356832984
_symmetry_space_group_name_H-M  'P1'
_symmetry_Int_Tables_Number  1
loop_
_symmetry_equiv_pos_site_id
_symmetry_equiv_pos_as_xyz
  1  x,y,z
loop_
 _atom_site_label
 _atom_site_occupancy
 _atom_site_fract_x
 _atom_site_fract_y
 _atom_site_fract_z
 _atom_site_thermal_displace_type
 _atom_site_B_iso_or_equiv
 _atom_site_type_symbol
Si1 1.0000000000 0.4154795725 0.4154795725 0.0000000000  Biso 1.0 Si
Si2 1.0000000000 0.6654795725 0.1654795725 0.5000000000  Biso 1.0 Si
Si3 1.0000000000 0.8345204275 0.3345204275 0.5000000000  Biso 1.0 Si
Si4 1.0000000000 0.5845204275 0.5845204275 0.0000000000  Biso 1.0 Si
Sr5 1.0000000000 0.0000000000 0.0000000000 0.0000000000  Biso 1.0 Sr
Sr6 1.0000000000 0.2500000000 0.7500000000 0.5000000000  Biso 1.0 Sr
