# AFLOW.org Repositories
# Si2Ti1   [ORCF,ORCF1,oF24] (STD_PRIM doi
data_Si2Ti1
_pd_phase_name Si2Ti1
_cell_length_a  6.0175093283
_cell_length_b  4.9605241552
_cell_length_c  4.8378819967
_cell_angle_alpha  75.7661360790
_cell_angle_beta  53.0386276198
_cell_angle_gamma  51.1952363012
_symmetry_space_group_name_H-M  'P1'
_symmetry_Int_Tables_Number  1
loop_
_symmetry_equiv_pos_site_id
_symmetry_equiv_pos_as_xyz
  1  x,y,z
loop_
 _atom_site_label
 _atom_site_occupancy
 _atom_site_fract_x
 _atom_site_fract_y
 _atom_site_fract_z
 _atom_site_thermal_displace_type
 _atom_site_B_iso_or_equiv
 _atom_site_type_symbol
Si1 1.0000000000 0.6596877210 0.3403122790 0.6596877210  Biso 1.0 Si
Si2 1.0000000000 0.3403122790 0.6596877210 0.3403122790  Biso 1.0 Si
Si3 1.0000000000 0.0903122790 0.4096877210 0.0903122790  Biso 1.0 Si
Si4 1.0000000000 0.4096877210 0.0903122790 0.4096877210  Biso 1.0 Si
Ti5 1.0000000000 0.0000000000 0.0000000000 0.0000000000  Biso 1.0 Ti
Ti6 1.0000000000 0.7500000000 0.7500000000 0.7500000000  Biso 1.0 Ti
