# AFLOW.org Repositories
# Si2W1   [HEX,HEX,hP9] (STD_PRIM doi:10.1
data_Si2W1
_pd_phase_name Si2W1
_cell_length_a  4.6299075950
_cell_length_b  4.6299075950
_cell_length_c  6.6614554417
_cell_angle_alpha  90.0000000000
_cell_angle_beta  90.0000000000
_cell_angle_gamma  120.0000000000
_symmetry_space_group_name_H-M  'P1'
_symmetry_Int_Tables_Number  1
loop_
_symmetry_equiv_pos_site_id
_symmetry_equiv_pos_as_xyz
  1  x,y,z
loop_
 _atom_site_label
 _atom_site_occupancy
 _atom_site_fract_x
 _atom_site_fract_y
 _atom_site_fract_z
 _atom_site_thermal_displace_type
 _atom_site_B_iso_or_equiv
 _atom_site_type_symbol
Si1 1.0000000000 0.1632101064 0.8367898936 0.5000000000  Biso 1.0 Si
Si2 1.0000000000 0.1632101064 0.3264202129 0.1666666667  Biso 1.0 Si
Si3 1.0000000000 0.6735797871 0.8367898936 0.8333333333  Biso 1.0 Si
Si4 1.0000000000 0.8367898936 0.1632101064 0.5000000000  Biso 1.0 Si
Si5 1.0000000000 0.8367898936 0.6735797871 0.1666666667  Biso 1.0 Si
Si6 1.0000000000 0.3264202129 0.1632101064 0.8333333333  Biso 1.0 Si
W7 1.0000000000 0.5000000000 0.5000000000 0.5000000000  Biso 1.0 W
W8 1.0000000000 0.5000000000 0.0000000000 0.1666666667  Biso 1.0 W
W9 1.0000000000 0.0000000000 0.5000000000 0.8333333333  Biso 1.0 W
