# AFLOW.org Repositories
# Si2Y1   [BCT,BCT2,tI12] (STD_PRIM doi:10
data_Si2Y1
_pd_phase_name Si2Y1
_cell_length_a  7.8862115610
_cell_length_b  7.8862115610
_cell_length_c  7.8862115610
_cell_angle_alpha  150.8382806283
_cell_angle_beta  150.8382806283
_cell_angle_gamma  41.7122733988
_symmetry_space_group_name_H-M  'P1'
_symmetry_Int_Tables_Number  1
loop_
_symmetry_equiv_pos_site_id
_symmetry_equiv_pos_as_xyz
  1  x,y,z
loop_
 _atom_site_label
 _atom_site_occupancy
 _atom_site_fract_x
 _atom_site_fract_y
 _atom_site_fract_z
 _atom_site_thermal_displace_type
 _atom_site_B_iso_or_equiv
 _atom_site_type_symbol
Si1 1.0000000000 0.5817827428 0.5817827428 0.0000000000  Biso 1.0 Si
Si2 1.0000000000 0.8317827428 0.3317827428 0.5000000000  Biso 1.0 Si
Si3 1.0000000000 0.6682172572 0.1682172572 0.5000000000  Biso 1.0 Si
Si4 1.0000000000 0.4182172572 0.4182172572 0.0000000000  Biso 1.0 Si
Y5 1.0000000000 0.0000000000 0.0000000000 0.0000000000  Biso 1.0 Y
Y6 1.0000000000 0.2500000000 0.7500000000 0.5000000000  Biso 1.0 Y
