# AFLOW.org Repositories
# Si3V5   [BCT,BCT1,tI32] (STD_PRIM doi:10
data_Si3V5
_pd_phase_name Si3V5
_cell_length_a  7.1018582337
_cell_length_b  7.1018582337
_cell_length_c  7.1018582337
_cell_angle_alpha  96.4305428249
_cell_angle_beta  96.4305428249
_cell_angle_gamma  140.8960263624
_symmetry_space_group_name_H-M  'P1'
_symmetry_Int_Tables_Number  1
loop_
_symmetry_equiv_pos_site_id
_symmetry_equiv_pos_as_xyz
  1  x,y,z
loop_
 _atom_site_label
 _atom_site_occupancy
 _atom_site_fract_x
 _atom_site_fract_y
 _atom_site_fract_z
 _atom_site_thermal_displace_type
 _atom_site_B_iso_or_equiv
 _atom_site_type_symbol
Si1 1.0000000000 0.2500000000 0.2500000000 0.0000000000  Biso 1.0 Si
Si2 1.0000000000 0.7500000000 0.7500000000 0.0000000000  Biso 1.0 Si
Si3 1.0000000000 0.6658068245 0.1658068245 0.8316136490  Biso 1.0 Si
Si4 1.0000000000 0.3341931755 0.8341931755 0.1683863510  Biso 1.0 Si
Si5 1.0000000000 0.1658068245 0.3341931755 0.5000000000  Biso 1.0 Si
Si6 1.0000000000 0.8341931755 0.6658068245 0.5000000000  Biso 1.0 Si
V7 1.0000000000 0.7500000000 0.2500000000 0.5000000000  Biso 1.0 V
V8 1.0000000000 0.2500000000 0.7500000000 0.5000000000  Biso 1.0 V
V9 1.0000000000 0.2240936829 0.0748009570 0.2988946399  Biso 1.0 V
V10 1.0000000000 0.7759063171 0.9251990430 0.7011053601  Biso 1.0 V
V11 1.0000000000 0.0748009570 0.7759063171 0.8507072742  Biso 1.0 V
V12 1.0000000000 0.9251990430 0.2240936829 0.1492927258  Biso 1.0 V
V13 1.0000000000 0.7240936829 0.4251990430 0.1492927258  Biso 1.0 V
V14 1.0000000000 0.2759063171 0.5748009570 0.8507072742  Biso 1.0 V
V15 1.0000000000 0.5748009570 0.7240936829 0.2988946399  Biso 1.0 V
V16 1.0000000000 0.4251990430 0.2759063171 0.7011053601  Biso 1.0 V
