# AFLOW.org Repositories
# Sn1Sr2   [ORC,ORC,oP12] (STD_PRIM doi:10
data_Sn1Sr2
_pd_phase_name Sn1Sr2
_cell_length_a  5.4106015347
_cell_length_b  8.4653051283
_cell_length_c  10.1804992722
_cell_angle_alpha  90.0000000000
_cell_angle_beta  90.0000000000
_cell_angle_gamma  90.0000000000
_symmetry_space_group_name_H-M  'P1'
_symmetry_Int_Tables_Number  1
loop_
_symmetry_equiv_pos_site_id
_symmetry_equiv_pos_as_xyz
  1  x,y,z
loop_
 _atom_site_label
 _atom_site_occupancy
 _atom_site_fract_x
 _atom_site_fract_y
 _atom_site_fract_z
 _atom_site_thermal_displace_type
 _atom_site_B_iso_or_equiv
 _atom_site_type_symbol
Sn1 1.0000000000 0.2500000000 0.2506494019 0.8929162968  Biso 1.0 Sn
Sn2 1.0000000000 0.7500000000 0.2493505981 0.3929162968  Biso 1.0 Sn
Sn3 1.0000000000 0.7500000000 0.7493505981 0.1070837032  Biso 1.0 Sn
Sn4 1.0000000000 0.2500000000 0.7506494019 0.6070837032  Biso 1.0 Sn
Sr5 1.0000000000 0.2500000000 0.6559844188 0.9269234127  Biso 1.0 Sr
Sr6 1.0000000000 0.7500000000 0.8440155812 0.4269234127  Biso 1.0 Sr
Sr7 1.0000000000 0.7500000000 0.3440155812 0.0730765873  Biso 1.0 Sr
Sr8 1.0000000000 0.2500000000 0.1559844188 0.5730765873  Biso 1.0 Sr
Sr9 1.0000000000 0.2500000000 0.5211711040 0.3191319396  Biso 1.0 Sr
Sr10 1.0000000000 0.7500000000 0.9788288960 0.8191319396  Biso 1.0 Sr
Sr11 1.0000000000 0.7500000000 0.4788288960 0.6808680604  Biso 1.0 Sr
Sr12 1.0000000000 0.2500000000 0.0211711040 0.1808680604  Biso 1.0 Sr
