# AFLOW.org Repositories
# Sn1Te3Tl4   [BCT,BCT2,tI32] (STD_PRIM do
data_Sn1Te3Tl4
_pd_phase_name Sn1Te3Tl4
_cell_length_a  9.1770878661
_cell_length_b  9.1770878661
_cell_length_c  9.1770878661
_cell_angle_alpha  121.7657278302
_cell_angle_beta  121.7657278302
_cell_angle_gamma  86.9679445095
_symmetry_space_group_name_H-M  'P1'
_symmetry_Int_Tables_Number  1
loop_
_symmetry_equiv_pos_site_id
_symmetry_equiv_pos_as_xyz
  1  x,y,z
loop_
 _atom_site_label
 _atom_site_occupancy
 _atom_site_fract_x
 _atom_site_fract_y
 _atom_site_fract_z
 _atom_site_thermal_displace_type
 _atom_site_B_iso_or_equiv
 _atom_site_type_symbol
Sn1 1.0000000000 0.0000000000 0.0000000000 0.0000000000  Biso 1.0 Sn
Sn2 1.0000000000 0.5000000000 0.5000000000 0.0000000000  Biso 1.0 Sn
Te3 1.0000000000 0.7500000000 0.7500000000 0.0000000000  Biso 1.0 Te
Te4 1.0000000000 0.2500000000 0.2500000000 0.0000000000  Biso 1.0 Te
Te5 1.0000000000 0.6650798594 0.1650798594 0.8301597187  Biso 1.0 Te
Te6 1.0000000000 0.3349201406 0.8349201406 0.1698402813  Biso 1.0 Te
Te7 1.0000000000 0.8349201406 0.6650798594 0.5000000000  Biso 1.0 Te
Te8 1.0000000000 0.1650798594 0.3349201406 0.5000000000  Biso 1.0 Te
Tl9 1.0000000000 0.6957089334 0.1957089334 0.2085745595  Biso 1.0 Tl
Tl10 1.0000000000 0.9871343739 0.4871343739 0.7914254405  Biso 1.0 Tl
Tl11 1.0000000000 0.4871343739 0.6957089334 0.5000000000  Biso 1.0 Tl
Tl12 1.0000000000 0.1957089334 0.9871343739 0.5000000000  Biso 1.0 Tl
Tl13 1.0000000000 0.8042910666 0.0128656261 0.5000000000  Biso 1.0 Tl
Tl14 1.0000000000 0.5128656261 0.3042910666 0.5000000000  Biso 1.0 Tl
Tl15 1.0000000000 0.0128656261 0.5128656261 0.2085745595  Biso 1.0 Tl
Tl16 1.0000000000 0.3042910666 0.8042910666 0.7914254405  Biso 1.0 Tl
