# AFLOW.org Repositories
# Sn2Y1   [ORCC,ORCC,oS12] (STD_PRIM doi:1
data_Sn2Y1
_pd_phase_name Sn2Y1
_cell_length_a  8.5989873412
_cell_length_b  8.5989873412
_cell_length_c  4.4024412329
_cell_angle_alpha  90.0000000000
_cell_angle_beta  90.0000000000
_cell_angle_gamma  149.9018705537
_symmetry_space_group_name_H-M  'P1'
_symmetry_Int_Tables_Number  1
loop_
_symmetry_equiv_pos_site_id
_symmetry_equiv_pos_as_xyz
  1  x,y,z
loop_
 _atom_site_label
 _atom_site_occupancy
 _atom_site_fract_x
 _atom_site_fract_y
 _atom_site_fract_z
 _atom_site_thermal_displace_type
 _atom_site_B_iso_or_equiv
 _atom_site_type_symbol
Sn1 1.0000000000 0.5632323429 0.4367676571 0.7500000000  Biso 1.0 Sn
Sn2 1.0000000000 0.4367676571 0.5632323429 0.2500000000  Biso 1.0 Sn
Sn3 1.0000000000 0.2513940010 0.7486059990 0.7500000000  Biso 1.0 Sn
Sn4 1.0000000000 0.7486059990 0.2513940010 0.2500000000  Biso 1.0 Sn
Y5 1.0000000000 0.9006847109 0.0993152891 0.7500000000  Biso 1.0 Y
Y6 1.0000000000 0.0993152891 0.9006847109 0.2500000000  Biso 1.0 Y
