# AFLOW.org Repositories
# Sn3Ti5   [HEX,HEX,hP16] (STD_PRIM doi:10
data_Sn3Ti5
_pd_phase_name Sn3Ti5
_cell_length_a  8.2064312408
_cell_length_b  8.2064312408
_cell_length_c  5.5685259491
_cell_angle_alpha  90.0000000000
_cell_angle_beta  90.0000000000
_cell_angle_gamma  119.7991864929
_symmetry_space_group_name_H-M  'P1'
_symmetry_Int_Tables_Number  1
loop_
_symmetry_equiv_pos_site_id
_symmetry_equiv_pos_as_xyz
  1  x,y,z
loop_
 _atom_site_label
 _atom_site_occupancy
 _atom_site_fract_x
 _atom_site_fract_y
 _atom_site_fract_z
 _atom_site_thermal_displace_type
 _atom_site_B_iso_or_equiv
 _atom_site_type_symbol
Sn1 1.0000000000 0.3917263140 0.3917263140 0.7500000000  Biso 1.0 Sn
Sn2 1.0000000000 0.0000000000 0.6082736860 0.7500000000  Biso 1.0 Sn
Sn3 1.0000000000 0.6053132283 0.0000000000 0.7500000000  Biso 1.0 Sn
Sn4 1.0000000000 0.6082736860 0.6082736860 0.2500000000  Biso 1.0 Sn
Sn5 1.0000000000 0.0000000000 0.3917263140 0.2500000000  Biso 1.0 Sn
Sn6 1.0000000000 0.3946867717 0.0000000000 0.2500000000  Biso 1.0 Sn
Ti7 1.0000000000 0.6667483125 0.3334966251 0.0000000000  Biso 1.0 Ti
Ti8 1.0000000000 0.3332516875 0.6665033749 0.5000000000  Biso 1.0 Ti
Ti9 1.0000000000 0.3332516875 0.6665033749 0.0000000000  Biso 1.0 Ti
Ti10 1.0000000000 0.6667483125 0.3334966251 0.5000000000  Biso 1.0 Ti
Ti11 1.0000000000 0.7578804685 0.7598172101 0.7500000000  Biso 1.0 Ti
Ti12 1.0000000000 0.9980632584 0.2401827899 0.7500000000  Biso 1.0 Ti
Ti13 1.0000000000 0.2338072420 0.0000000000 0.7500000000  Biso 1.0 Ti
Ti14 1.0000000000 0.2421195315 0.2401827899 0.2500000000  Biso 1.0 Ti
Ti15 1.0000000000 0.0019367416 0.7598172101 0.2500000000  Biso 1.0 Ti
Ti16 1.0000000000 0.7661927580 0.0000000000 0.2500000000  Biso 1.0 Ti
