# AFLOW.org Repositories
# Sn6V6Y1   [HEX,HEX,hP13] (STD_PRIM doi:1
data_Sn6V6Y1
_pd_phase_name Sn6V6Y1
_cell_length_a  5.5702477098
_cell_length_b  5.5702477098
_cell_length_c  9.4019849393
_cell_angle_alpha  90.0000000000
_cell_angle_beta  90.0000000000
_cell_angle_gamma  120.0000000000
_symmetry_space_group_name_H-M  'P1'
_symmetry_Int_Tables_Number  1
loop_
_symmetry_equiv_pos_site_id
_symmetry_equiv_pos_as_xyz
  1  x,y,z
loop_
 _atom_site_label
 _atom_site_occupancy
 _atom_site_fract_x
 _atom_site_fract_y
 _atom_site_fract_z
 _atom_site_thermal_displace_type
 _atom_site_B_iso_or_equiv
 _atom_site_type_symbol
Sn1 1.0000000000 0.0000000000 0.0000000000 0.3274104967  Biso 1.0 Sn
Sn2 1.0000000000 0.0000000000 0.0000000000 0.6725895033  Biso 1.0 Sn
Sn3 1.0000000000 0.3333247496 0.6666623748 0.5000000000  Biso 1.0 Sn
Sn4 1.0000000000 0.6666752504 0.3333376252 0.5000000000  Biso 1.0 Sn
Sn5 1.0000000000 0.3333255486 0.6666627743 0.0000000000  Biso 1.0 Sn
Sn6 1.0000000000 0.6666744514 0.3333372257 0.0000000000  Biso 1.0 Sn
V7 1.0000000000 0.5000000000 0.5000000000 0.2481023913  Biso 1.0 V
V8 1.0000000000 0.5000000000 0.0000000000 0.2481023913  Biso 1.0 V
V9 1.0000000000 0.0000000000 0.5000000000 0.2481024858  Biso 1.0 V
V10 1.0000000000 0.5000000000 0.0000000000 0.7518976087  Biso 1.0 V
V11 1.0000000000 0.5000000000 0.5000000000 0.7518976087  Biso 1.0 V
V12 1.0000000000 0.0000000000 0.5000000000 0.7518975142  Biso 1.0 V
Y13 1.0000000000 0.0000000000 0.0000000000 0.0000000000  Biso 1.0 Y
