# AFLOW.org Repositories
# Sr1Zn5   [HEX,HEX,hP6] (STD_PRIM doi:10.
data_Sr1Zn5
_pd_phase_name Sr1Zn5
_cell_length_a  5.5084139835
_cell_length_b  5.5084139835
_cell_length_c  4.2463610046
_cell_angle_alpha  90.0000000000
_cell_angle_beta  90.0000000000
_cell_angle_gamma  120.0000000000
_symmetry_space_group_name_H-M  'P1'
_symmetry_Int_Tables_Number  1
loop_
_symmetry_equiv_pos_site_id
_symmetry_equiv_pos_as_xyz
  1  x,y,z
loop_
 _atom_site_label
 _atom_site_occupancy
 _atom_site_fract_x
 _atom_site_fract_y
 _atom_site_fract_z
 _atom_site_thermal_displace_type
 _atom_site_B_iso_or_equiv
 _atom_site_type_symbol
Sr1 1.0000000000 0.0000000000 0.0000000000 0.0000000000  Biso 1.0 Sr
Zn2 1.0000000000 0.6666876781 0.3333753562 0.0000000000  Biso 1.0 Zn
Zn3 1.0000000000 0.3333123219 0.6666246438 0.0000000000  Biso 1.0 Zn
Zn4 1.0000000000 0.0000000000 0.5000000000 0.5000000000  Biso 1.0 Zn
Zn5 1.0000000000 0.5000000000 0.5000000000 0.5000000000  Biso 1.0 Zn
Zn6 1.0000000000 0.5000000000 0.0000000000 0.5000000000  Biso 1.0 Zn
