# AFLOW.org Repositories
# Ta1Zn2   [HEX,HEX,hP12] (STD_PRIM doi:10
data_Ta1Zn2
_pd_phase_name Ta1Zn2
_cell_length_a  5.0335525145
_cell_length_b  5.0335525145
_cell_length_c  8.0888398631
_cell_angle_alpha  90.0000000000
_cell_angle_beta  90.0000000000
_cell_angle_gamma  120.0000000000
_symmetry_space_group_name_H-M  'P1'
_symmetry_Int_Tables_Number  1
loop_
_symmetry_equiv_pos_site_id
_symmetry_equiv_pos_as_xyz
  1  x,y,z
loop_
 _atom_site_label
 _atom_site_occupancy
 _atom_site_fract_x
 _atom_site_fract_y
 _atom_site_fract_z
 _atom_site_thermal_displace_type
 _atom_site_B_iso_or_equiv
 _atom_site_type_symbol
Ta1 1.0000000000 0.6666702993 0.3333405987 0.0679569787  Biso 1.0 Ta
Ta2 1.0000000000 0.3333297007 0.6666594013 0.5679569787  Biso 1.0 Ta
Ta3 1.0000000000 0.3333297007 0.6666594013 0.9320430213  Biso 1.0 Ta
Ta4 1.0000000000 0.6666702993 0.3333405987 0.4320430213  Biso 1.0 Ta
Zn5 1.0000000000 0.0000000000 0.0000000000 0.0000000000  Biso 1.0 Zn
Zn6 1.0000000000 0.0000000000 0.0000000000 0.5000000000  Biso 1.0 Zn
Zn7 1.0000000000 0.6548619094 0.8274385128 0.2500000000  Biso 1.0 Zn
Zn8 1.0000000000 0.1725766034 0.8274385128 0.2500000000  Biso 1.0 Zn
Zn9 1.0000000000 0.1725717590 0.3451435179 0.2500000000  Biso 1.0 Zn
Zn10 1.0000000000 0.3451380906 0.1725614872 0.7500000000  Biso 1.0 Zn
Zn11 1.0000000000 0.8274233966 0.1725614872 0.7500000000  Biso 1.0 Zn
Zn12 1.0000000000 0.8274282410 0.6548564821 0.7500000000  Biso 1.0 Zn
