# AFLOW.org Repositories
# Tb3Tl5   [ORCC,ORCC,oS32] (STD_PRIM doi:
data_Tb3Tl5
_pd_phase_name Tb3Tl5
_cell_length_a  6.5021510914
_cell_length_b  6.5021510914
_cell_length_c  10.5527601967
_cell_angle_alpha  90.0000000000
_cell_angle_beta  90.0000000000
_cell_angle_gamma  102.3422548232
_symmetry_space_group_name_H-M  'P1'
_symmetry_Int_Tables_Number  1
loop_
_symmetry_equiv_pos_site_id
_symmetry_equiv_pos_as_xyz
  1  x,y,z
loop_
 _atom_site_label
 _atom_site_occupancy
 _atom_site_fract_x
 _atom_site_fract_y
 _atom_site_fract_z
 _atom_site_thermal_displace_type
 _atom_site_B_iso_or_equiv
 _atom_site_type_symbol
Tb1 1.0000000000 0.6113553675 0.6113553675 0.7500000000  Biso 1.0 Tb
Tb2 1.0000000000 0.3886446325 0.3886446325 0.2500000000  Biso 1.0 Tb
Tb3 1.0000000000 0.7939460924 0.2060539076 0.0000000000  Biso 1.0 Tb
Tb4 1.0000000000 0.2060539076 0.7939460924 0.5000000000  Biso 1.0 Tb
Tb5 1.0000000000 0.2060539076 0.7939460924 0.0000000000  Biso 1.0 Tb
Tb6 1.0000000000 0.7939460924 0.2060539076 0.5000000000  Biso 1.0 Tb
Tl7 1.0000000000 0.0022084650 0.0022084650 0.7500000000  Biso 1.0 Tl
Tl8 1.0000000000 0.9977915350 0.9977915350 0.2500000000  Biso 1.0 Tl
Tl9 1.0000000000 0.3022131833 0.3022131833 0.5373832482  Biso 1.0 Tl
Tl10 1.0000000000 0.6977868167 0.6977868167 0.0373832482  Biso 1.0 Tl
Tl11 1.0000000000 0.3022131833 0.3022131833 0.9626167518  Biso 1.0 Tl
Tl12 1.0000000000 0.6977868167 0.6977868167 0.4626167518  Biso 1.0 Tl
Tl13 1.0000000000 0.0674813801 0.5114490017 0.7500000000  Biso 1.0 Tl
Tl14 1.0000000000 0.9325186199 0.4885509983 0.2500000000  Biso 1.0 Tl
Tl15 1.0000000000 0.5114490017 0.0674813801 0.7500000000  Biso 1.0 Tl
Tl16 1.0000000000 0.4885509983 0.9325186199 0.2500000000  Biso 1.0 Tl
