# AFLOW.org Repositories
# Tc2Zr1   [HEX,HEX,hP12] (STD_PRIM doi:10
data_Tc2Zr1
_pd_phase_name Tc2Zr1
_cell_length_a  5.2399937615
_cell_length_b  5.2399937615
_cell_length_c  8.7546918662
_cell_angle_alpha  90.0000000000
_cell_angle_beta  90.0000000000
_cell_angle_gamma  120.0000000000
_symmetry_space_group_name_H-M  'P1'
_symmetry_Int_Tables_Number  1
loop_
_symmetry_equiv_pos_site_id
_symmetry_equiv_pos_as_xyz
  1  x,y,z
loop_
 _atom_site_label
 _atom_site_occupancy
 _atom_site_fract_x
 _atom_site_fract_y
 _atom_site_fract_z
 _atom_site_thermal_displace_type
 _atom_site_B_iso_or_equiv
 _atom_site_type_symbol
Tc1 1.0000000000 0.0000000000 0.0000000000 0.0000000000  Biso 1.0 Tc
Tc2 1.0000000000 0.0000000000 0.0000000000 0.5000000000  Biso 1.0 Tc
Tc3 1.0000000000 0.8286604214 0.6573487484 0.2500000000  Biso 1.0 Tc
Tc4 1.0000000000 0.3426512516 0.1713395786 0.2500000000  Biso 1.0 Tc
Tc5 1.0000000000 0.8286771929 0.1713228071 0.2500000000  Biso 1.0 Tc
Tc6 1.0000000000 0.1713395786 0.3426512516 0.7500000000  Biso 1.0 Tc
Tc7 1.0000000000 0.6573487484 0.8286604214 0.7500000000  Biso 1.0 Tc
Tc8 1.0000000000 0.1713228071 0.8286771929 0.7500000000  Biso 1.0 Tc
Zr9 1.0000000000 0.3333217861 0.6666782139 0.0617745011  Biso 1.0 Zr
Zr10 1.0000000000 0.6666782139 0.3333217861 0.5617745011  Biso 1.0 Zr
Zr11 1.0000000000 0.6666782139 0.3333217861 0.9382254989  Biso 1.0 Zr
Zr12 1.0000000000 0.3333217861 0.6666782139 0.4382254989  Biso 1.0 Zr
