# AFLOW.org Repositories
# Te1Ti1   [HEX,HEX,hP4] (STD_PRIM doi:10.
data_Te1Ti1
_pd_phase_name Te1Ti1
_cell_length_a  4.2195809326
_cell_length_b  4.2195809326
_cell_length_c  7.0009691923
_cell_angle_alpha  90.0000000000
_cell_angle_beta  90.0000000000
_cell_angle_gamma  119.5372481223
_symmetry_space_group_name_H-M  'P1'
_symmetry_Int_Tables_Number  1
loop_
_symmetry_equiv_pos_site_id
_symmetry_equiv_pos_as_xyz
  1  x,y,z
loop_
 _atom_site_label
 _atom_site_occupancy
 _atom_site_fract_x
 _atom_site_fract_y
 _atom_site_fract_z
 _atom_site_thermal_displace_type
 _atom_site_B_iso_or_equiv
 _atom_site_type_symbol
Te1 1.0000000000 0.3346262472 0.6653737528 0.2500000000  Biso 1.0 Te
Te2 1.0000000000 0.6653737528 0.3346262472 0.7500000000  Biso 1.0 Te
Ti3 1.0000000000 0.0000000000 0.0000000000 0.0000000000  Biso 1.0 Ti
Ti4 1.0000000000 0.0000000000 0.0000000000 0.5000000000  Biso 1.0 Ti
