# AFLOW.org Repositories
# Te1Zr1   [ORC,ORC,oP8] (STD_PRIM doi:10.
data_Te1Zr1
_pd_phase_name Te1Zr1
_cell_length_a  3.7946892429
_cell_length_b  7.0330939215
_cell_length_c  7.4289890664
_cell_angle_alpha  90.0000000000
_cell_angle_beta  90.0000000000
_cell_angle_gamma  90.0000000000
_symmetry_space_group_name_H-M  'P1'
_symmetry_Int_Tables_Number  1
loop_
_symmetry_equiv_pos_site_id
_symmetry_equiv_pos_as_xyz
  1  x,y,z
loop_
 _atom_site_label
 _atom_site_occupancy
 _atom_site_fract_x
 _atom_site_fract_y
 _atom_site_fract_z
 _atom_site_thermal_displace_type
 _atom_site_B_iso_or_equiv
 _atom_site_type_symbol
Te1 1.0000000000 0.7500000000 0.5725134991 0.7074062154  Biso 1.0 Te
Te2 1.0000000000 0.2500000000 0.0725134991 0.7925937846  Biso 1.0 Te
Te3 1.0000000000 0.2500000000 0.4274865009 0.2925937846  Biso 1.0 Te
Te4 1.0000000000 0.7500000000 0.9274865009 0.2074062154  Biso 1.0 Te
Zr5 1.0000000000 0.7500000000 0.3119814849 0.0083894113  Biso 1.0 Zr
Zr6 1.0000000000 0.2500000000 0.8119814849 0.4916105887  Biso 1.0 Zr
Zr7 1.0000000000 0.2500000000 0.6880185151 0.9916105887  Biso 1.0 Zr
Zr8 1.0000000000 0.7500000000 0.1880185151 0.5083894113  Biso 1.0 Zr
