# AFLOW.org Repositories
# Th1Zn4   [BCT,BCT2,tI10] (STD_PRIM doi:1
data_Th1Zn4
_pd_phase_name Th1Zn4
_cell_length_a  6.0051461899
_cell_length_b  6.0051461899
_cell_length_c  6.0051461899
_cell_angle_alpha  138.1382624865
_cell_angle_beta  138.1382624865
_cell_angle_gamma  60.6913090778
_symmetry_space_group_name_H-M  'P1'
_symmetry_Int_Tables_Number  1
loop_
_symmetry_equiv_pos_site_id
_symmetry_equiv_pos_as_xyz
  1  x,y,z
loop_
 _atom_site_label
 _atom_site_occupancy
 _atom_site_fract_x
 _atom_site_fract_y
 _atom_site_fract_z
 _atom_site_thermal_displace_type
 _atom_site_B_iso_or_equiv
 _atom_site_type_symbol
Th1 1.0000000000 0.0000000000 0.0000000000 0.0000000000  Biso 1.0 Th
Zn2 1.0000000000 0.7500000000 0.2500000000 0.5000000000  Biso 1.0 Zn
Zn3 1.0000000000 0.2500000000 0.7500000000 0.5000000000  Biso 1.0 Zn
Zn4 1.0000000000 0.6183858451 0.6183858451 0.0000000000  Biso 1.0 Zn
Zn5 1.0000000000 0.3816141549 0.3816141549 0.0000000000  Biso 1.0 Zn
