# AFLOW.org Repositories
# Th2Zn1   [BCT,BCT1,tI12] (STD_PRIM doi:1
data_Th2Zn1
_pd_phase_name Th2Zn1
_cell_length_a  6.2297421314
_cell_length_b  6.2297421314
_cell_length_c  6.2297421314
_cell_angle_alpha  102.3448719599
_cell_angle_beta  102.3448719599
_cell_angle_gamma  124.9183830571
_symmetry_space_group_name_H-M  'P1'
_symmetry_Int_Tables_Number  1
loop_
_symmetry_equiv_pos_site_id
_symmetry_equiv_pos_as_xyz
  1  x,y,z
loop_
 _atom_site_label
 _atom_site_occupancy
 _atom_site_fract_x
 _atom_site_fract_y
 _atom_site_fract_z
 _atom_site_thermal_displace_type
 _atom_site_B_iso_or_equiv
 _atom_site_type_symbol
Th1 1.0000000000 0.8403793504 0.6596206496 0.5000000000  Biso 1.0 Th
Th2 1.0000000000 0.1596206496 0.3403793504 0.5000000000  Biso 1.0 Th
Th3 1.0000000000 0.6596206496 0.1596206496 0.8192412992  Biso 1.0 Th
Th4 1.0000000000 0.3403793504 0.8403793504 0.1807587008  Biso 1.0 Th
Zn5 1.0000000000 0.2500000000 0.2500000000 0.0000000000  Biso 1.0 Zn
Zn6 1.0000000000 0.7500000000 0.7500000000 0.0000000000  Biso 1.0 Zn
