# AFLOW.org Repositories
# Th3Tl5   [ORCC,ORCC,oS32] (STD_PRIM doi:
data_Th3Tl5
_pd_phase_name Th3Tl5
_cell_length_a  6.7510339409
_cell_length_b  6.7510339409
_cell_length_c  10.6880002284
_cell_angle_alpha  90.0000000000
_cell_angle_beta  90.0000000000
_cell_angle_gamma  101.8164994760
_symmetry_space_group_name_H-M  'P1'
_symmetry_Int_Tables_Number  1
loop_
_symmetry_equiv_pos_site_id
_symmetry_equiv_pos_as_xyz
  1  x,y,z
loop_
 _atom_site_label
 _atom_site_occupancy
 _atom_site_fract_x
 _atom_site_fract_y
 _atom_site_fract_z
 _atom_site_thermal_displace_type
 _atom_site_B_iso_or_equiv
 _atom_site_type_symbol
Th1 1.0000000000 0.6152021170 0.6152021170 0.7500000000  Biso 1.0 Th
Th2 1.0000000000 0.3847978830 0.3847978830 0.2500000000  Biso 1.0 Th
Th3 1.0000000000 0.7894322061 0.2105677939 0.0000000000  Biso 1.0 Th
Th4 1.0000000000 0.2105677939 0.7894322061 0.5000000000  Biso 1.0 Th
Th5 1.0000000000 0.2105677939 0.7894322061 0.0000000000  Biso 1.0 Th
Th6 1.0000000000 0.7894322061 0.2105677939 0.5000000000  Biso 1.0 Th
Tl7 1.0000000000 0.0048601505 0.0048601505 0.7500000000  Biso 1.0 Tl
Tl8 1.0000000000 0.9951398495 0.9951398495 0.2500000000  Biso 1.0 Tl
Tl9 1.0000000000 0.3010713525 0.3010713525 0.5447749527  Biso 1.0 Tl
Tl10 1.0000000000 0.6989286475 0.6989286475 0.0447749527  Biso 1.0 Tl
Tl11 1.0000000000 0.3010713525 0.3010713525 0.9552250473  Biso 1.0 Tl
Tl12 1.0000000000 0.6989286475 0.6989286475 0.4552250473  Biso 1.0 Tl
Tl13 1.0000000000 0.0674392701 0.4976084909 0.7500000000  Biso 1.0 Tl
Tl14 1.0000000000 0.9325607299 0.5023915091 0.2500000000  Biso 1.0 Tl
Tl15 1.0000000000 0.4976084909 0.0674392701 0.7500000000  Biso 1.0 Tl
Tl16 1.0000000000 0.5023915091 0.9325607299 0.2500000000  Biso 1.0 Tl
