# AFLOW.org Repositories
# Ti1Zn2   [HEX,HEX,hP12] (STD_PRIM doi:10
data_Ti1Zn2
_pd_phase_name Ti1Zn2
_cell_length_a  5.0758190198
_cell_length_b  5.0758190198
_cell_length_c  8.2197573439
_cell_angle_alpha  90.0000000000
_cell_angle_beta  90.0000000000
_cell_angle_gamma  120.0000000000
_symmetry_space_group_name_H-M  'P1'
_symmetry_Int_Tables_Number  1
loop_
_symmetry_equiv_pos_site_id
_symmetry_equiv_pos_as_xyz
  1  x,y,z
loop_
 _atom_site_label
 _atom_site_occupancy
 _atom_site_fract_x
 _atom_site_fract_y
 _atom_site_fract_z
 _atom_site_thermal_displace_type
 _atom_site_B_iso_or_equiv
 _atom_site_type_symbol
Ti1 1.0000000000 0.6666790712 0.3333581424 0.0631870967  Biso 1.0 Ti
Ti2 1.0000000000 0.3333209288 0.6666418576 0.5631870967  Biso 1.0 Ti
Ti3 1.0000000000 0.3333209288 0.6666418576 0.9368129033  Biso 1.0 Ti
Ti4 1.0000000000 0.6666790712 0.3333581424 0.4368129033  Biso 1.0 Ti
Zn5 1.0000000000 0.0000000000 0.0000000000 0.0000000000  Biso 1.0 Zn
Zn6 1.0000000000 0.0000000000 0.0000000000 0.5000000000  Biso 1.0 Zn
Zn7 1.0000000000 0.6579324844 0.8289750722 0.2500000000  Biso 1.0 Zn
Zn8 1.0000000000 0.1710425878 0.8289750722 0.2500000000  Biso 1.0 Zn
Zn9 1.0000000000 0.1710361554 0.3420723109 0.2500000000  Biso 1.0 Zn
Zn10 1.0000000000 0.3420675156 0.1710249278 0.7500000000  Biso 1.0 Zn
Zn11 1.0000000000 0.8289574122 0.1710249278 0.7500000000  Biso 1.0 Zn
Zn12 1.0000000000 0.8289638446 0.6579276891 0.7500000000  Biso 1.0 Zn
