# AFLOW.org Repositories
# U1   [ORCC,ORCC,oS4] (STD_PRIM doi:10.10
data_U1
_pd_phase_name U1
_cell_length_a  3.3201218385
_cell_length_b  3.3201218385
_cell_length_c  5.1058826768
_cell_angle_alpha  90.0000000000
_cell_angle_beta  90.0000000000
_cell_angle_gamma  126.9670567126
_symmetry_space_group_name_H-M  'P1'
_symmetry_Int_Tables_Number  1
loop_
_symmetry_equiv_pos_site_id
_symmetry_equiv_pos_as_xyz
  1  x,y,z
loop_
 _atom_site_label
 _atom_site_occupancy
 _atom_site_fract_x
 _atom_site_fract_y
 _atom_site_fract_z
 _atom_site_thermal_displace_type
 _atom_site_B_iso_or_equiv
 _atom_site_type_symbol
U1 1.0000000000 0.8936828158 0.1063171842 0.7500000000  Biso 1.0 U
U2 1.0000000000 0.1063171842 0.8936828158 0.2500000000  Biso 1.0 U
