# AFLOW.org Repositories
# Zn22Zr1   [FCC,FCC,cF184] (STD_PRIM doi:
data_Zn22Zr1
_pd_phase_name Zn22Zr1
_cell_length_a  9.8532569996
_cell_length_b  9.8532569996
_cell_length_c  9.8532569996
_cell_angle_alpha  60.0000000000
_cell_angle_beta  60.0000000000
_cell_angle_gamma  60.0000000000
_symmetry_space_group_name_H-M  'P1'
_symmetry_Int_Tables_Number  1
loop_
_symmetry_equiv_pos_site_id
_symmetry_equiv_pos_as_xyz
  1  x,y,z
loop_
 _atom_site_label
 _atom_site_occupancy
 _atom_site_fract_x
 _atom_site_fract_y
 _atom_site_fract_z
 _atom_site_thermal_displace_type
 _atom_site_B_iso_or_equiv
 _atom_site_type_symbol
Zn1 1.0000000000 0.2632248227 0.4867751773 0.7632248227  Biso 1.0 Zn
Zn2 1.0000000000 0.9867751773 0.7632248227 0.4867751773  Biso 1.0 Zn
Zn3 1.0000000000 0.2632248227 0.7632248227 0.4867751773  Biso 1.0 Zn
Zn4 1.0000000000 0.9867751773 0.4867751773 0.7632248227  Biso 1.0 Zn
Zn5 1.0000000000 0.2632248227 0.4867751773 0.4867751773  Biso 1.0 Zn
Zn6 1.0000000000 0.9867751773 0.7632248227 0.7632248227  Biso 1.0 Zn
Zn7 1.0000000000 0.0132248227 0.5132248227 0.2367751773  Biso 1.0 Zn
Zn8 1.0000000000 0.7367751773 0.2367751773 0.5132248227  Biso 1.0 Zn
Zn9 1.0000000000 0.0132248227 0.2367751773 0.5132248227  Biso 1.0 Zn
Zn10 1.0000000000 0.7367751773 0.5132248227 0.2367751773  Biso 1.0 Zn
Zn11 1.0000000000 0.7367751773 0.5132248227 0.5132248227  Biso 1.0 Zn
Zn12 1.0000000000 0.0132248227 0.2367751773 0.2367751773  Biso 1.0 Zn
Zn13 1.0000000000 0.5574722898 0.3198665297 0.3198665297  Biso 1.0 Zn
Zn14 1.0000000000 0.3027946508 0.3198665297 0.3198665297  Biso 1.0 Zn
Zn15 1.0000000000 0.8198665297 0.0574722898 0.8027946508  Biso 1.0 Zn
Zn16 1.0000000000 0.8198665297 0.8027946508 0.0574722898  Biso 1.0 Zn
Zn17 1.0000000000 0.5574722898 0.3198665297 0.8027946508  Biso 1.0 Zn
Zn18 1.0000000000 0.3027946508 0.3198665297 0.0574722898  Biso 1.0 Zn
Zn19 1.0000000000 0.8198665297 0.8027946508 0.3198665297  Biso 1.0 Zn
Zn20 1.0000000000 0.8198665297 0.0574722898 0.3198665297  Biso 1.0 Zn
Zn21 1.0000000000 0.5574722898 0.8027946508 0.3198665297  Biso 1.0 Zn
Zn22 1.0000000000 0.3027946508 0.0574722898 0.3198665297  Biso 1.0 Zn
Zn23 1.0000000000 0.8198665297 0.3198665297 0.0574722898  Biso 1.0 Zn
Zn24 1.0000000000 0.8198665297 0.3198665297 0.8027946508  Biso 1.0 Zn
Zn25 1.0000000000 0.6972053492 0.6801334703 0.6801334703  Biso 1.0 Zn
Zn26 1.0000000000 0.4425277102 0.6801334703 0.6801334703  Biso 1.0 Zn
Zn27 1.0000000000 0.1801334703 0.9425277102 0.1972053492  Biso 1.0 Zn
Zn28 1.0000000000 0.1801334703 0.1972053492 0.9425277102  Biso 1.0 Zn
Zn29 1.0000000000 0.1801334703 0.6801334703 0.1972053492  Biso 1.0 Zn
Zn30 1.0000000000 0.1801334703 0.6801334703 0.9425277102  Biso 1.0 Zn
Zn31 1.0000000000 0.4425277102 0.1972053492 0.6801334703  Biso 1.0 Zn
Zn32 1.0000000000 0.6972053492 0.9425277102 0.6801334703  Biso 1.0 Zn
Zn33 1.0000000000 0.1801334703 0.1972053492 0.6801334703  Biso 1.0 Zn
Zn34 1.0000000000 0.1801334703 0.9425277102 0.6801334703  Biso 1.0 Zn
Zn35 1.0000000000 0.6972053492 0.6801334703 0.9425277102  Biso 1.0 Zn
Zn36 1.0000000000 0.4425277102 0.6801334703 0.1972053492  Biso 1.0 Zn
Zn37 1.0000000000 0.5000000000 0.5000000000 0.5000000000  Biso 1.0 Zn
Zn38 1.0000000000 0.0000000000 0.5000000000 0.5000000000  Biso 1.0 Zn
Zn39 1.0000000000 0.0000000000 0.0000000000 0.5000000000  Biso 1.0 Zn
Zn40 1.0000000000 0.0000000000 0.5000000000 0.0000000000  Biso 1.0 Zn
Zn41 1.0000000000 0.0000000000 0.0000000000 0.0000000000  Biso 1.0 Zn
Zn42 1.0000000000 0.5000000000 0.0000000000 0.0000000000  Biso 1.0 Zn
Zn43 1.0000000000 0.5000000000 0.5000000000 0.0000000000  Biso 1.0 Zn
Zn44 1.0000000000 0.5000000000 0.0000000000 0.5000000000  Biso 1.0 Zn
Zr45 1.0000000000 0.6250000000 0.1250000000 0.1250000000  Biso 1.0 Zr
Zr46 1.0000000000 0.3750000000 0.8750000000 0.8750000000  Biso 1.0 Zr
